gem5 Simulator System.  https://www.gem5.org
gem5 is copyrighted software; use the --copyright option for details.

gem5 version 23.0.1.0
gem5 compiled Nov  5 2023 21:49:08
gem5 started Nov 17 2023 16:39:15
gem5 executing on ubuntu-s-4vcpu-8gb-160gb-intel-nyc3-01, pid 312583
command line: /root/gem5/build/X86/gem5.opt --outdir out/parsec/blackscholes/simsmall/TIMING/run_2 /root/gem5/configs/tutorial/part1/x86-parsec-benchmark.py --benchmark blackscholes --size simsmall --cpu_type TIMING --cpu_clock 3GHz --num_cores 2 --l1_size 32kB --l1_assoc 8 --l2_size 256kB --l2_assoc 16 --l2_banks 1 --mem_size 3GB

info: Using default config
Computing md5sum on /root/.cache/gem5/x86-parsec:   0%|          | 0/25769803776 [00:00<?, ?it/s]Computing md5sum on /root/.cache/gem5/x86-parsec:   0%|          | 30.6M/24.0G [00:00<01:20, 321MB/s]Computing md5sum on /root/.cache/gem5/x86-parsec:   0%|          | 62.4M/24.0G [00:00<01:18, 328MB/s]Computing md5sum on /root/.cache/gem5/x86-parsec:   0%|          | 91.4M/24.0G [00:00<01:20, 317MB/s]Computing md5sum on /root/.cache/gem5/x86-parsec:   1%|          | 124M/24.0G [00:00<01:18, 326MB/s] Computing md5sum on /root/.cache/gem5/x86-parsec:   1%|          | 157M/24.0G [00:00<01:17, 333MB/s]Computing md5sum on /root/.cache/gem5/x86-parsec:   1%|          | 188M/24.0G [00:00<01:16, 333MB/s]Computing md5sum on /root/.cache/gem5/x86-parsec:   1%|          | 219M/24.0G [00:00<01:17, 330MB/s]Computing md5sum on /root/.cache/gem5/x86-parsec:   1%|1         | 251M/24.0G [00:00<01:17, 331MB/s]Computing md5sum on /root/.cache/gem5/x86-parsec:   1%|1         | 282M/24.0G [00:00<01:17, 327MB/s]Computing md5sum on /root/.cache/gem5/x86-parsec:   1%|1         | 313M/24.0G [00:01<01:17, 329MB/s]Computing md5sum on /root/.cache/gem5/x86-parsec:   1%|1         | 345M/24.0G [00:01<01:17, 329MB/s]Computing md5sum on /root/.cache/gem5/x86-parsec:   2%|1         | 378M/24.0G [00:01<01:15, 336MB/s]Computing md5sum on /root/.cache/gem5/x86-parsec:   2%|1         | 409M/24.0G [00:01<01:16, 333MB/s]Computing md5sum on /root/.cache/gem5/x86-parsec:   2%|1         | 439M/24.0G [00:01<01:17, 325MB/s]Computing md5sum on /root/.cache/gem5/x86-parsec:   2%|1         | 469M/24.0G [00:01<01:17, 325MB/s]Computing md5sum on /root/.cache/gem5/x86-parsec:   2%|2         | 504M/24.0G [00:01<01:15, 334MB/s]Computing md5sum on /root/.cache/gem5/x86-parsec:   2%|2         | 537M/24.0G [00:01<01:14, 339MB/s]Computing md5sum on /root/.cache/gem5/x86-parsec:   2%|2         | 568M/24.0G [00:01<01:14, 337MB/s]Computing md5sum on /root/.cache/gem5/x86-parsec:   2%|2         | 601M/24.0G [00:01<01:14, 339MB/s]Computing md5sum on /root/.cache/gem5/x86-parsec:   3%|2         | 631M/24.0G [00:02<01:15, 331MB/s]Computing md5sum on /root/.cache/gem5/x86-parsec:   3%|2         | 661M/24.0G [00:02<01:17, 325MB/s]Computing md5sum on /root/.cache/gem5/x86-parsec:   3%|2         | 692M/24.0G [00:02<01:16, 327MB/s]Computing md5sum on /root/.cache/gem5/x86-parsec:   3%|2         | 723M/24.0G [00:02<01:17, 324MB/s]Computing md5sum on /root/.cache/gem5/x86-parsec:   3%|3         | 754M/24.0G [00:02<01:16, 326MB/s]Computing md5sum on /root/.cache/gem5/x86-parsec:   3%|3         | 785M/24.0G [00:02<01:16, 327MB/s]Computing md5sum on /root/.cache/gem5/x86-parsec:   3%|3         | 815M/24.0G [00:02<01:17, 322MB/s]Computing md5sum on /root/.cache/gem5/x86-parsec:   3%|3         | 850M/24.0G [00:02<01:14, 335MB/s]Computing md5sum on /root/.cache/gem5/x86-parsec:   4%|3         | 885M/24.0G [00:02<01:12, 344MB/s]Computing md5sum on /root/.cache/gem5/x86-parsec:   4%|3         | 919M/24.0G [00:02<01:11, 347MB/s]Computing md5sum on /root/.cache/gem5/x86-parsec:   4%|3         | 953M/24.0G [00:03<01:10, 350MB/s]Computing md5sum on /root/.cache/gem5/x86-parsec:   4%|4         | 986M/24.0G [00:03<01:10, 350MB/s]Computing md5sum on /root/.cache/gem5/x86-parsec:   4%|4         | 1.00G/24.0G [00:03<01:10, 350MB/s]Computing md5sum on /root/.cache/gem5/x86-parsec:   4%|4         | 1.03G/24.0G [00:03<01:11, 344MB/s]Computing md5sum on /root/.cache/gem5/x86-parsec:   4%|4         | 1.06G/24.0G [00:03<01:10, 348MB/s]Computing md5sum on /root/.cache/gem5/x86-parsec:   5%|4         | 1.09G/24.0G [00:03<01:09, 353MB/s]Computing md5sum on /root/.cache/gem5/x86-parsec:   5%|4         | 1.12G/24.0G [00:03<01:10, 347MB/s]Computing md5sum on /root/.cache/gem5/x86-parsec:   5%|4         | 1.15G/24.0G [00:03<01:13, 336MB/s]Computing md5sum on /root/.cache/gem5/x86-parsec:   5%|4         | 1.19G/24.0G [00:03<01:12, 337MB/s]Computing md5sum on /root/.cache/gem5/x86-parsec:   5%|5         | 1.22G/24.0G [00:03<01:13, 335MB/s]Computing md5sum on /root/.cache/gem5/x86-parsec:   5%|5         | 1.25G/24.0G [00:04<01:12, 338MB/s]Computing md5sum on /root/.cache/gem5/x86-parsec:   5%|5         | 1.28G/24.0G [00:04<01:12, 338MB/s]Computing md5sum on /root/.cache/gem5/x86-parsec:   5%|5         | 1.31G/24.0G [00:04<01:11, 341MB/s]Computing md5sum on /root/.cache/gem5/x86-parsec:   6%|5         | 1.34G/24.0G [00:04<01:12, 335MB/s]Computing md5sum on /root/.cache/gem5/x86-parsec:   6%|5         | 1.37G/24.0G [00:04<01:11, 338MB/s]Computing md5sum on /root/.cache/gem5/x86-parsec:   6%|5         | 1.41G/24.0G [00:04<01:11, 338MB/s]Computing md5sum on /root/.cache/gem5/x86-parsec:   6%|5         | 1.44G/24.0G [00:04<01:10, 343MB/s]Computing md5sum on /root/.cache/gem5/x86-parsec:   6%|6         | 1.47G/24.0G [00:04<01:12, 334MB/s]Computing md5sum on /root/.cache/gem5/x86-parsec:   6%|6         | 1.50G/24.0G [00:04<01:11, 340MB/s]Computing md5sum on /root/.cache/gem5/x86-parsec:   6%|6         | 1.53G/24.0G [00:04<01:09, 345MB/s]Computing md5sum on /root/.cache/gem5/x86-parsec:   7%|6         | 1.57G/24.0G [00:05<01:09, 348MB/s]Computing md5sum on /root/.cache/gem5/x86-parsec:   7%|6         | 1.60G/24.0G [00:05<01:09, 344MB/s]Computing md5sum on /root/.cache/gem5/x86-parsec:   7%|6         | 1.63G/24.0G [00:05<01:08, 350MB/s]Computing md5sum on /root/.cache/gem5/x86-parsec:   7%|6         | 1.66G/24.0G [00:05<01:09, 346MB/s]Computing md5sum on /root/.cache/gem5/x86-parsec:   7%|7         | 1.70G/24.0G [00:05<01:09, 346MB/s]Computing md5sum on /root/.cache/gem5/x86-parsec:   7%|7         | 1.73G/24.0G [00:05<01:09, 344MB/s]Computing md5sum on /root/.cache/gem5/x86-parsec:   7%|7         | 1.76G/24.0G [00:05<01:09, 344MB/s]Computing md5sum on /root/.cache/gem5/x86-parsec:   7%|7         | 1.79G/24.0G [00:05<01:08, 348MB/s]Computing md5sum on /root/.cache/gem5/x86-parsec:   8%|7         | 1.82G/24.0G [00:05<01:09, 345MB/s]Computing md5sum on /root/.cache/gem5/x86-parsec:   8%|7         | 1.85G/24.0G [00:05<01:09, 341MB/s]Computing md5sum on /root/.cache/gem5/x86-parsec:   8%|7         | 1.89G/24.0G [00:06<01:09, 343MB/s]Computing md5sum on /root/.cache/gem5/x86-parsec:   8%|7         | 1.92G/24.0G [00:06<01:08, 345MB/s]Computing md5sum on /root/.cache/gem5/x86-parsec:   8%|8         | 1.95G/24.0G [00:06<01:08, 345MB/s]Computing md5sum on /root/.cache/gem5/x86-parsec:   8%|8         | 1.98G/24.0G [00:06<01:12, 328MB/s]Computing md5sum on /root/.cache/gem5/x86-parsec:   8%|8         | 2.01G/24.0G [00:06<01:13, 322MB/s]Computing md5sum on /root/.cache/gem5/x86-parsec:   8%|8         | 2.04G/24.0G [00:06<01:12, 324MB/s]Computing md5sum on /root/.cache/gem5/x86-parsec:   9%|8         | 2.07G/24.0G [00:06<01:12, 325MB/s]Computing md5sum on /root/.cache/gem5/x86-parsec:   9%|8         | 2.10G/24.0G [00:06<01:11, 330MB/s]Computing md5sum on /root/.cache/gem5/x86-parsec:   9%|8         | 2.13G/24.0G [00:06<01:09, 337MB/s]Computing md5sum on /root/.cache/gem5/x86-parsec:   9%|9         | 2.17G/24.0G [00:06<01:08, 342MB/s]Computing md5sum on /root/.cache/gem5/x86-parsec:   9%|9         | 2.20G/24.0G [00:07<01:08, 343MB/s]Computing md5sum on /root/.cache/gem5/x86-parsec:   9%|9         | 2.23G/24.0G [00:07<01:09, 337MB/s]Computing md5sum on /root/.cache/gem5/x86-parsec:   9%|9         | 2.26G/24.0G [00:07<01:09, 335MB/s]Computing md5sum on /root/.cache/gem5/x86-parsec:  10%|9         | 2.29G/24.0G [00:07<01:08, 339MB/s]Computing md5sum on /root/.cache/gem5/x86-parsec:  10%|9         | 2.32G/24.0G [00:07<01:08, 338MB/s]Computing md5sum on /root/.cache/gem5/x86-parsec:  10%|9         | 2.35G/24.0G [00:07<01:11, 327MB/s]Computing md5sum on /root/.cache/gem5/x86-parsec:  10%|9         | 2.38G/24.0G [00:07<01:09, 332MB/s]Computing md5sum on /root/.cache/gem5/x86-parsec:  10%|#         | 2.41G/24.0G [00:07<01:12, 321MB/s]Computing md5sum on /root/.cache/gem5/x86-parsec:  10%|#         | 2.45G/24.0G [00:07<01:08, 338MB/s]Computing md5sum on /root/.cache/gem5/x86-parsec:  10%|#         | 2.48G/24.0G [00:07<01:07, 341MB/s]Computing md5sum on /root/.cache/gem5/x86-parsec:  10%|#         | 2.51G/24.0G [00:08<01:08, 336MB/s]Computing md5sum on /root/.cache/gem5/x86-parsec:  11%|#         | 2.54G/24.0G [00:08<01:08, 335MB/s]Computing md5sum on /root/.cache/gem5/x86-parsec:  11%|#         | 2.57G/24.0G [00:08<01:08, 336MB/s]Computing md5sum on /root/.cache/gem5/x86-parsec:  11%|#         | 2.60G/24.0G [00:08<01:11, 322MB/s]Computing md5sum on /root/.cache/gem5/x86-parsec:  11%|#         | 2.63G/24.0G [00:08<01:11, 323MB/s]Computing md5sum on /root/.cache/gem5/x86-parsec:  11%|#1        | 2.66G/24.0G [00:08<01:10, 325MB/s]Computing md5sum on /root/.cache/gem5/x86-parsec:  11%|#1        | 2.69G/24.0G [00:08<01:09, 327MB/s]Computing md5sum on /root/.cache/gem5/x86-parsec:  11%|#1        | 2.72G/24.0G [00:08<01:09, 327MB/s]Computing md5sum on /root/.cache/gem5/x86-parsec:  11%|#1        | 2.75G/24.0G [00:08<01:11, 320MB/s]Computing md5sum on /root/.cache/gem5/x86-parsec:  12%|#1        | 2.78G/24.0G [00:08<01:10, 323MB/s]Computing md5sum on /root/.cache/gem5/x86-parsec:  12%|#1        | 2.81G/24.0G [00:09<01:09, 328MB/s]Computing md5sum on /root/.cache/gem5/x86-parsec:  12%|#1        | 2.84G/24.0G [00:09<01:09, 326MB/s]Computing md5sum on /root/.cache/gem5/x86-parsec:  12%|#1        | 2.87G/24.0G [00:09<01:09, 325MB/s]Computing md5sum on /root/.cache/gem5/x86-parsec:  12%|#2        | 2.90G/24.0G [00:09<01:12, 312MB/s]Computing md5sum on /root/.cache/gem5/x86-parsec:  12%|#2        | 2.93G/24.0G [00:09<01:12, 311MB/s]Computing md5sum on /root/.cache/gem5/x86-parsec:  12%|#2        | 2.96G/24.0G [00:09<01:10, 321MB/s]Computing md5sum on /root/.cache/gem5/x86-parsec:  12%|#2        | 2.99G/24.0G [00:09<01:11, 317MB/s]Computing md5sum on /root/.cache/gem5/x86-parsec:  13%|#2        | 3.02G/24.0G [00:09<01:10, 318MB/s]Computing md5sum on /root/.cache/gem5/x86-parsec:  13%|#2        | 3.04G/24.0G [00:09<01:15, 300MB/s]Computing md5sum on /root/.cache/gem5/x86-parsec:  13%|#2        | 3.07G/24.0G [00:09<01:15, 297MB/s]Computing md5sum on /root/.cache/gem5/x86-parsec:  13%|#2        | 3.10G/24.0G [00:10<01:14, 301MB/s]Computing md5sum on /root/.cache/gem5/x86-parsec:  13%|#3        | 3.13G/24.0G [00:10<01:13, 304MB/s]Computing md5sum on /root/.cache/gem5/x86-parsec:  13%|#3        | 3.16G/24.0G [00:10<01:11, 315MB/s]Computing md5sum on /root/.cache/gem5/x86-parsec:  13%|#3        | 3.19G/24.0G [00:10<01:08, 326MB/s]Computing md5sum on /root/.cache/gem5/x86-parsec:  13%|#3        | 3.22G/24.0G [00:10<01:08, 328MB/s]Computing md5sum on /root/.cache/gem5/x86-parsec:  14%|#3        | 3.25G/24.0G [00:10<01:06, 333MB/s]Computing md5sum on /root/.cache/gem5/x86-parsec:  14%|#3        | 3.28G/24.0G [00:10<01:07, 330MB/s]Computing md5sum on /root/.cache/gem5/x86-parsec:  14%|#3        | 3.32G/24.0G [00:10<01:06, 332MB/s]Computing md5sum on /root/.cache/gem5/x86-parsec:  14%|#3        | 3.35G/24.0G [00:10<01:07, 328MB/s]Computing md5sum on /root/.cache/gem5/x86-parsec:  14%|#4        | 3.37G/24.0G [00:10<01:09, 317MB/s]Computing md5sum on /root/.cache/gem5/x86-parsec:  14%|#4        | 3.40G/24.0G [00:11<01:11, 309MB/s]Computing md5sum on /root/.cache/gem5/x86-parsec:  14%|#4        | 3.43G/24.0G [00:11<01:13, 302MB/s]Computing md5sum on /root/.cache/gem5/x86-parsec:  14%|#4        | 3.45G/24.0G [00:11<01:13, 300MB/s]Computing md5sum on /root/.cache/gem5/x86-parsec:  15%|#4        | 3.48G/24.0G [00:11<01:15, 293MB/s]Computing md5sum on /root/.cache/gem5/x86-parsec:  15%|#4        | 3.51G/24.0G [00:11<01:15, 293MB/s]Computing md5sum on /root/.cache/gem5/x86-parsec:  15%|#4        | 3.53G/24.0G [00:11<01:14, 293MB/s]Computing md5sum on /root/.cache/gem5/x86-parsec:  15%|#4        | 3.56G/24.0G [00:11<01:15, 293MB/s]Computing md5sum on /root/.cache/gem5/x86-parsec:  15%|#4        | 3.59G/24.0G [00:11<01:15, 292MB/s]Computing md5sum on /root/.cache/gem5/x86-parsec:  15%|#5        | 3.62G/24.0G [00:11<01:11, 307MB/s]Computing md5sum on /root/.cache/gem5/x86-parsec:  15%|#5        | 3.65G/24.0G [00:11<01:10, 311MB/s]Computing md5sum on /root/.cache/gem5/x86-parsec:  15%|#5        | 3.68G/24.0G [00:12<01:09, 312MB/s]Computing md5sum on /root/.cache/gem5/x86-parsec:  15%|#5        | 3.71G/24.0G [00:12<01:09, 313MB/s]Computing md5sum on /root/.cache/gem5/x86-parsec:  16%|#5        | 3.74G/24.0G [00:12<01:09, 313MB/s]Computing md5sum on /root/.cache/gem5/x86-parsec:  16%|#5        | 3.77G/24.0G [00:12<01:07, 320MB/s]Computing md5sum on /root/.cache/gem5/x86-parsec:  16%|#5        | 3.80G/24.0G [00:12<01:07, 320MB/s]Computing md5sum on /root/.cache/gem5/x86-parsec:  16%|#5        | 3.83G/24.0G [00:12<01:08, 316MB/s]Computing md5sum on /root/.cache/gem5/x86-parsec:  16%|#6        | 3.86G/24.0G [00:12<01:08, 314MB/s]Computing md5sum on /root/.cache/gem5/x86-parsec:  16%|#6        | 3.89G/24.0G [00:12<01:06, 322MB/s]Computing md5sum on /root/.cache/gem5/x86-parsec:  16%|#6        | 3.92G/24.0G [00:12<01:05, 327MB/s]Computing md5sum on /root/.cache/gem5/x86-parsec:  16%|#6        | 3.95G/24.0G [00:12<01:04, 335MB/s]Computing md5sum on /root/.cache/gem5/x86-parsec:  17%|#6        | 3.98G/24.0G [00:13<01:03, 337MB/s]Computing md5sum on /root/.cache/gem5/x86-parsec:  17%|#6        | 4.01G/24.0G [00:13<01:05, 327MB/s]Computing md5sum on /root/.cache/gem5/x86-parsec:  17%|#6        | 4.04G/24.0G [00:13<01:04, 331MB/s]Computing md5sum on /root/.cache/gem5/x86-parsec:  17%|#6        | 4.08G/24.0G [00:13<01:04, 334MB/s]Computing md5sum on /root/.cache/gem5/x86-parsec:  17%|#7        | 4.11G/24.0G [00:13<01:03, 336MB/s]Computing md5sum on /root/.cache/gem5/x86-parsec:  17%|#7        | 4.14G/24.0G [00:13<01:03, 333MB/s]Computing md5sum on /root/.cache/gem5/x86-parsec:  17%|#7        | 4.17G/24.0G [00:13<01:03, 334MB/s]Computing md5sum on /root/.cache/gem5/x86-parsec:  18%|#7        | 4.20G/24.0G [00:13<01:03, 334MB/s]Computing md5sum on /root/.cache/gem5/x86-parsec:  18%|#7        | 4.23G/24.0G [00:13<01:06, 320MB/s]Computing md5sum on /root/.cache/gem5/x86-parsec:  18%|#7        | 4.26G/24.0G [00:13<01:05, 322MB/s]Computing md5sum on /root/.cache/gem5/x86-parsec:  18%|#7        | 4.29G/24.0G [00:14<01:08, 310MB/s]Computing md5sum on /root/.cache/gem5/x86-parsec:  18%|#7        | 4.31G/24.0G [00:14<01:09, 304MB/s]Computing md5sum on /root/.cache/gem5/x86-parsec:  18%|#8        | 4.34G/24.0G [00:14<01:08, 309MB/s]Computing md5sum on /root/.cache/gem5/x86-parsec:  18%|#8        | 4.37G/24.0G [00:14<01:07, 313MB/s]Computing md5sum on /root/.cache/gem5/x86-parsec:  18%|#8        | 4.40G/24.0G [00:14<01:06, 316MB/s]Computing md5sum on /root/.cache/gem5/x86-parsec:  18%|#8        | 4.43G/24.0G [00:14<01:05, 320MB/s]Computing md5sum on /root/.cache/gem5/x86-parsec:  19%|#8        | 4.46G/24.0G [00:14<01:06, 315MB/s]Computing md5sum on /root/.cache/gem5/x86-parsec:  19%|#8        | 4.49G/24.0G [00:14<01:08, 306MB/s]Computing md5sum on /root/.cache/gem5/x86-parsec:  19%|#8        | 4.52G/24.0G [00:14<01:06, 312MB/s]Computing md5sum on /root/.cache/gem5/x86-parsec:  19%|#8        | 4.55G/24.0G [00:14<01:05, 318MB/s]Computing md5sum on /root/.cache/gem5/x86-parsec:  19%|#9        | 4.58G/24.0G [00:15<01:04, 324MB/s]Computing md5sum on /root/.cache/gem5/x86-parsec:  19%|#9        | 4.61G/24.0G [00:15<01:04, 325MB/s]Computing md5sum on /root/.cache/gem5/x86-parsec:  19%|#9        | 4.64G/24.0G [00:15<01:03, 328MB/s]Computing md5sum on /root/.cache/gem5/x86-parsec:  19%|#9        | 4.67G/24.0G [00:15<01:04, 323MB/s]Computing md5sum on /root/.cache/gem5/x86-parsec:  20%|#9        | 4.70G/24.0G [00:15<01:02, 331MB/s]Computing md5sum on /root/.cache/gem5/x86-parsec:  20%|#9        | 4.74G/24.0G [00:15<01:01, 337MB/s]Computing md5sum on /root/.cache/gem5/x86-parsec:  20%|#9        | 4.77G/24.0G [00:15<01:01, 337MB/s]Computing md5sum on /root/.cache/gem5/x86-parsec:  20%|#9        | 4.80G/24.0G [00:15<01:00, 339MB/s]Computing md5sum on /root/.cache/gem5/x86-parsec:  20%|##        | 4.83G/24.0G [00:15<01:02, 329MB/s]Computing md5sum on /root/.cache/gem5/x86-parsec:  20%|##        | 4.86G/24.0G [00:15<01:02, 328MB/s]Computing md5sum on /root/.cache/gem5/x86-parsec:  20%|##        | 4.89G/24.0G [00:16<01:01, 334MB/s]Computing md5sum on /root/.cache/gem5/x86-parsec:  21%|##        | 4.92G/24.0G [00:16<01:00, 337MB/s]Computing md5sum on /root/.cache/gem5/x86-parsec:  21%|##        | 4.95G/24.0G [00:16<01:00, 338MB/s]Computing md5sum on /root/.cache/gem5/x86-parsec:  21%|##        | 4.98G/24.0G [00:16<01:01, 330MB/s]Computing md5sum on /root/.cache/gem5/x86-parsec:  21%|##        | 5.02G/24.0G [00:16<01:01, 333MB/s]Computing md5sum on /root/.cache/gem5/x86-parsec:  21%|##1       | 5.05G/24.0G [00:16<01:00, 337MB/s]Computing md5sum on /root/.cache/gem5/x86-parsec:  21%|##1       | 5.08G/24.0G [00:16<01:00, 337MB/s]Computing md5sum on /root/.cache/gem5/x86-parsec:  21%|##1       | 5.11G/24.0G [00:16<01:01, 332MB/s]Computing md5sum on /root/.cache/gem5/x86-parsec:  21%|##1       | 5.14G/24.0G [00:16<01:00, 336MB/s]Computing md5sum on /root/.cache/gem5/x86-parsec:  22%|##1       | 5.17G/24.0G [00:16<00:59, 338MB/s]Computing md5sum on /root/.cache/gem5/x86-parsec:  22%|##1       | 5.21G/24.0G [00:17<00:58, 345MB/s]Computing md5sum on /root/.cache/gem5/x86-parsec:  22%|##1       | 5.24G/24.0G [00:17<00:58, 346MB/s]Computing md5sum on /root/.cache/gem5/x86-parsec:  22%|##1       | 5.27G/24.0G [00:17<00:58, 343MB/s]Computing md5sum on /root/.cache/gem5/x86-parsec:  22%|##2       | 5.30G/24.0G [00:17<00:59, 338MB/s]Computing md5sum on /root/.cache/gem5/x86-parsec:  22%|##2       | 5.33G/24.0G [00:17<00:59, 335MB/s]Computing md5sum on /root/.cache/gem5/x86-parsec:  22%|##2       | 5.36G/24.0G [00:17<01:01, 327MB/s]Computing md5sum on /root/.cache/gem5/x86-parsec:  22%|##2       | 5.39G/24.0G [00:17<01:00, 329MB/s]Computing md5sum on /root/.cache/gem5/x86-parsec:  23%|##2       | 5.42G/24.0G [00:17<01:00, 329MB/s]Computing md5sum on /root/.cache/gem5/x86-parsec:  23%|##2       | 5.45G/24.0G [00:17<01:00, 327MB/s]Computing md5sum on /root/.cache/gem5/x86-parsec:  23%|##2       | 5.48G/24.0G [00:17<01:01, 322MB/s]Computing md5sum on /root/.cache/gem5/x86-parsec:  23%|##2       | 5.51G/24.0G [00:18<01:01, 325MB/s]Computing md5sum on /root/.cache/gem5/x86-parsec:  23%|##3       | 5.54G/24.0G [00:18<01:04, 308MB/s]Computing md5sum on /root/.cache/gem5/x86-parsec:  23%|##3       | 5.55G/24.0G [00:18<01:13, 270MB/s]Computing md5sum on /root/.cache/gem5/x86-parsec:  23%|##3       | 5.57G/24.0G [00:18<01:19, 249MB/s]Computing md5sum on /root/.cache/gem5/x86-parsec:  23%|##3       | 5.60G/24.0G [00:18<01:16, 260MB/s]Computing md5sum on /root/.cache/gem5/x86-parsec:  23%|##3       | 5.63G/24.0G [00:18<01:09, 283MB/s]Computing md5sum on /root/.cache/gem5/x86-parsec:  24%|##3       | 5.66G/24.0G [00:18<01:09, 284MB/s]Computing md5sum on /root/.cache/gem5/x86-parsec:  24%|##3       | 5.69G/24.0G [00:18<01:07, 291MB/s]Computing md5sum on /root/.cache/gem5/x86-parsec:  24%|##3       | 5.71G/24.0G [00:18<01:09, 281MB/s]Computing md5sum on /root/.cache/gem5/x86-parsec:  24%|##3       | 5.74G/24.0G [00:18<01:07, 291MB/s]Computing md5sum on /root/.cache/gem5/x86-parsec:  24%|##4       | 5.77G/24.0G [00:19<01:05, 298MB/s]Computing md5sum on /root/.cache/gem5/x86-parsec:  24%|##4       | 5.79G/24.0G [00:19<01:05, 297MB/s]Computing md5sum on /root/.cache/gem5/x86-parsec:  24%|##4       | 5.82G/24.0G [00:19<01:07, 287MB/s]Computing md5sum on /root/.cache/gem5/x86-parsec:  24%|##4       | 5.84G/24.0G [00:19<01:09, 282MB/s]Computing md5sum on /root/.cache/gem5/x86-parsec:  24%|##4       | 5.87G/24.0G [00:19<01:08, 283MB/s]Computing md5sum on /root/.cache/gem5/x86-parsec:  25%|##4       | 5.90G/24.0G [00:19<01:07, 289MB/s]Computing md5sum on /root/.cache/gem5/x86-parsec:  25%|##4       | 5.93G/24.0G [00:19<01:05, 296MB/s]Computing md5sum on /root/.cache/gem5/x86-parsec:  25%|##4       | 5.96G/24.0G [00:19<01:05, 296MB/s]Computing md5sum on /root/.cache/gem5/x86-parsec:  25%|##4       | 5.98G/24.0G [00:19<01:06, 293MB/s]Computing md5sum on /root/.cache/gem5/x86-parsec:  25%|##5       | 6.01G/24.0G [00:19<01:03, 302MB/s]Computing md5sum on /root/.cache/gem5/x86-parsec:  25%|##5       | 6.04G/24.0G [00:20<01:04, 300MB/s]Computing md5sum on /root/.cache/gem5/x86-parsec:  25%|##5       | 6.07G/24.0G [00:20<01:02, 309MB/s]Computing md5sum on /root/.cache/gem5/x86-parsec:  25%|##5       | 6.10G/24.0G [00:20<01:01, 313MB/s]Computing md5sum on /root/.cache/gem5/x86-parsec:  26%|##5       | 6.13G/24.0G [00:20<01:01, 314MB/s]Computing md5sum on /root/.cache/gem5/x86-parsec:  26%|##5       | 6.16G/24.0G [00:20<01:00, 318MB/s]Computing md5sum on /root/.cache/gem5/x86-parsec:  26%|##5       | 6.19G/24.0G [00:20<01:00, 314MB/s]Computing md5sum on /root/.cache/gem5/x86-parsec:  26%|##5       | 6.22G/24.0G [00:20<00:59, 320MB/s]Computing md5sum on /root/.cache/gem5/x86-parsec:  26%|##6       | 6.25G/24.0G [00:20<01:00, 315MB/s]Computing md5sum on /root/.cache/gem5/x86-parsec:  26%|##6       | 6.28G/24.0G [00:20<01:01, 312MB/s]Computing md5sum on /root/.cache/gem5/x86-parsec:  26%|##6       | 6.30G/24.0G [00:20<01:02, 303MB/s]Computing md5sum on /root/.cache/gem5/x86-parsec:  26%|##6       | 6.34G/24.0G [00:21<00:59, 317MB/s]Computing md5sum on /root/.cache/gem5/x86-parsec:  27%|##6       | 6.37G/24.0G [00:21<00:57, 327MB/s]Computing md5sum on /root/.cache/gem5/x86-parsec:  27%|##6       | 6.40G/24.0G [00:21<00:57, 328MB/s]Computing md5sum on /root/.cache/gem5/x86-parsec:  27%|##6       | 6.42G/24.0G [00:21<01:02, 301MB/s]Computing md5sum on /root/.cache/gem5/x86-parsec:  27%|##6       | 6.45G/24.0G [00:21<01:05, 286MB/s]Computing md5sum on /root/.cache/gem5/x86-parsec:  27%|##6       | 6.47G/24.0G [00:21<01:06, 283MB/s]Computing md5sum on /root/.cache/gem5/x86-parsec:  27%|##7       | 6.50G/24.0G [00:21<01:02, 299MB/s]Computing md5sum on /root/.cache/gem5/x86-parsec:  27%|##7       | 6.53G/24.0G [00:21<01:02, 302MB/s]Computing md5sum on /root/.cache/gem5/x86-parsec:  27%|##7       | 6.56G/24.0G [00:21<01:00, 312MB/s]Computing md5sum on /root/.cache/gem5/x86-parsec:  27%|##7       | 6.59G/24.0G [00:21<00:58, 320MB/s]Computing md5sum on /root/.cache/gem5/x86-parsec:  28%|##7       | 6.62G/24.0G [00:22<00:57, 323MB/s]Computing md5sum on /root/.cache/gem5/x86-parsec:  28%|##7       | 6.66G/24.0G [00:22<00:56, 329MB/s]Computing md5sum on /root/.cache/gem5/x86-parsec:  28%|##7       | 6.69G/24.0G [00:22<00:56, 328MB/s]Computing md5sum on /root/.cache/gem5/x86-parsec:  28%|##7       | 6.72G/24.0G [00:22<00:56, 329MB/s]Computing md5sum on /root/.cache/gem5/x86-parsec:  28%|##8       | 6.75G/24.0G [00:22<00:56, 331MB/s]Computing md5sum on /root/.cache/gem5/x86-parsec:  28%|##8       | 6.77G/24.0G [00:22<01:00, 308MB/s]Computing md5sum on /root/.cache/gem5/x86-parsec:  28%|##8       | 6.80G/24.0G [00:22<01:03, 292MB/s]Computing md5sum on /root/.cache/gem5/x86-parsec:  28%|##8       | 6.83G/24.0G [00:22<01:00, 307MB/s]Computing md5sum on /root/.cache/gem5/x86-parsec:  29%|##8       | 6.86G/24.0G [00:22<00:58, 315MB/s]Computing md5sum on /root/.cache/gem5/x86-parsec:  29%|##8       | 6.89G/24.0G [00:22<00:58, 312MB/s]Computing md5sum on /root/.cache/gem5/x86-parsec:  29%|##8       | 6.92G/24.0G [00:23<01:00, 306MB/s]Computing md5sum on /root/.cache/gem5/x86-parsec:  29%|##8       | 6.94G/24.0G [00:23<00:59, 308MB/s]Computing md5sum on /root/.cache/gem5/x86-parsec:  29%|##9       | 6.97G/24.0G [00:23<01:00, 301MB/s]Computing md5sum on /root/.cache/gem5/x86-parsec:  29%|##9       | 7.00G/24.0G [00:23<01:02, 291MB/s]Computing md5sum on /root/.cache/gem5/x86-parsec:  29%|##9       | 7.02G/24.0G [00:23<01:02, 293MB/s]Computing md5sum on /root/.cache/gem5/x86-parsec:  29%|##9       | 7.05G/24.0G [00:23<01:00, 300MB/s]Computing md5sum on /root/.cache/gem5/x86-parsec:  30%|##9       | 7.09G/24.0G [00:23<00:57, 314MB/s]Computing md5sum on /root/.cache/gem5/x86-parsec:  30%|##9       | 7.12G/24.0G [00:23<00:56, 323MB/s]Computing md5sum on /root/.cache/gem5/x86-parsec:  30%|##9       | 7.15G/24.0G [00:23<00:55, 326MB/s]Computing md5sum on /root/.cache/gem5/x86-parsec:  30%|##9       | 7.18G/24.0G [00:23<00:54, 329MB/s]Computing md5sum on /root/.cache/gem5/x86-parsec:  30%|###       | 7.21G/24.0G [00:24<00:53, 335MB/s]Computing md5sum on /root/.cache/gem5/x86-parsec:  30%|###       | 7.24G/24.0G [00:24<00:53, 335MB/s]Computing md5sum on /root/.cache/gem5/x86-parsec:  30%|###       | 7.28G/24.0G [00:24<00:52, 341MB/s]Computing md5sum on /root/.cache/gem5/x86-parsec:  30%|###       | 7.31G/24.0G [00:24<00:52, 344MB/s]Computing md5sum on /root/.cache/gem5/x86-parsec:  31%|###       | 7.34G/24.0G [00:24<00:52, 341MB/s]Computing md5sum on /root/.cache/gem5/x86-parsec:  31%|###       | 7.37G/24.0G [00:24<00:51, 344MB/s]Computing md5sum on /root/.cache/gem5/x86-parsec:  31%|###       | 7.41G/24.0G [00:24<00:51, 345MB/s]Computing md5sum on /root/.cache/gem5/x86-parsec:  31%|###       | 7.44G/24.0G [00:24<00:51, 347MB/s]Computing md5sum on /root/.cache/gem5/x86-parsec:  31%|###1      | 7.47G/24.0G [00:24<00:53, 333MB/s]Computing md5sum on /root/.cache/gem5/x86-parsec:  31%|###1      | 7.50G/24.0G [00:24<00:53, 330MB/s]Computing md5sum on /root/.cache/gem5/x86-parsec:  31%|###1      | 7.53G/24.0G [00:25<00:53, 332MB/s]Computing md5sum on /root/.cache/gem5/x86-parsec:  31%|###1      | 7.56G/24.0G [00:25<00:54, 326MB/s]Computing md5sum on /root/.cache/gem5/x86-parsec:  32%|###1      | 7.59G/24.0G [00:25<00:52, 334MB/s]Computing md5sum on /root/.cache/gem5/x86-parsec:  32%|###1      | 7.62G/24.0G [00:25<00:53, 331MB/s]Computing md5sum on /root/.cache/gem5/x86-parsec:  32%|###1      | 7.65G/24.0G [00:25<00:54, 324MB/s]Computing md5sum on /root/.cache/gem5/x86-parsec:  32%|###1      | 7.68G/24.0G [00:25<00:54, 323MB/s]Computing md5sum on /root/.cache/gem5/x86-parsec:  32%|###2      | 7.71G/24.0G [00:25<00:54, 324MB/s]Computing md5sum on /root/.cache/gem5/x86-parsec:  32%|###2      | 7.74G/24.0G [00:25<00:53, 328MB/s]Computing md5sum on /root/.cache/gem5/x86-parsec:  32%|###2      | 7.77G/24.0G [00:25<00:52, 332MB/s]Computing md5sum on /root/.cache/gem5/x86-parsec:  33%|###2      | 7.80G/24.0G [00:25<00:52, 333MB/s]Computing md5sum on /root/.cache/gem5/x86-parsec:  33%|###2      | 7.83G/24.0G [00:26<00:52, 333MB/s]Computing md5sum on /root/.cache/gem5/x86-parsec:  33%|###2      | 7.87G/24.0G [00:26<00:51, 337MB/s]Computing md5sum on /root/.cache/gem5/x86-parsec:  33%|###2      | 7.90G/24.0G [00:26<00:50, 339MB/s]Computing md5sum on /root/.cache/gem5/x86-parsec:  33%|###3      | 7.93G/24.0G [00:26<00:52, 329MB/s]Computing md5sum on /root/.cache/gem5/x86-parsec:  33%|###3      | 7.96G/24.0G [00:26<00:52, 329MB/s]Computing md5sum on /root/.cache/gem5/x86-parsec:  33%|###3      | 7.99G/24.0G [00:26<00:52, 330MB/s]Computing md5sum on /root/.cache/gem5/x86-parsec:  33%|###3      | 8.02G/24.0G [00:26<00:53, 321MB/s]Computing md5sum on /root/.cache/gem5/x86-parsec:  34%|###3      | 8.04G/24.0G [00:26<00:55, 311MB/s]Computing md5sum on /root/.cache/gem5/x86-parsec:  34%|###3      | 8.07G/24.0G [00:26<00:55, 310MB/s]Computing md5sum on /root/.cache/gem5/x86-parsec:  34%|###3      | 8.11G/24.0G [00:26<00:52, 324MB/s]Computing md5sum on /root/.cache/gem5/x86-parsec:  34%|###3      | 8.14G/24.0G [00:27<00:51, 333MB/s]Computing md5sum on /root/.cache/gem5/x86-parsec:  34%|###4      | 8.17G/24.0G [00:27<00:49, 345MB/s]Computing md5sum on /root/.cache/gem5/x86-parsec:  34%|###4      | 8.20G/24.0G [00:27<00:50, 335MB/s]Computing md5sum on /root/.cache/gem5/x86-parsec:  34%|###4      | 8.23G/24.0G [00:27<00:50, 338MB/s]Computing md5sum on /root/.cache/gem5/x86-parsec:  34%|###4      | 8.27G/24.0G [00:27<00:48, 346MB/s]Computing md5sum on /root/.cache/gem5/x86-parsec:  35%|###4      | 8.30G/24.0G [00:27<00:49, 343MB/s]Computing md5sum on /root/.cache/gem5/x86-parsec:  35%|###4      | 8.33G/24.0G [00:27<00:49, 337MB/s]Computing md5sum on /root/.cache/gem5/x86-parsec:  35%|###4      | 8.36G/24.0G [00:27<00:48, 343MB/s]Computing md5sum on /root/.cache/gem5/x86-parsec:  35%|###4      | 8.40G/24.0G [00:27<00:48, 346MB/s]Computing md5sum on /root/.cache/gem5/x86-parsec:  35%|###5      | 8.43G/24.0G [00:27<00:49, 340MB/s]Computing md5sum on /root/.cache/gem5/x86-parsec:  35%|###5      | 8.46G/24.0G [00:28<00:49, 341MB/s]Computing md5sum on /root/.cache/gem5/x86-parsec:  35%|###5      | 8.49G/24.0G [00:28<00:48, 347MB/s]Computing md5sum on /root/.cache/gem5/x86-parsec:  36%|###5      | 8.52G/24.0G [00:28<00:48, 340MB/s]Computing md5sum on /root/.cache/gem5/x86-parsec:  36%|###5      | 8.55G/24.0G [00:28<00:48, 343MB/s]Computing md5sum on /root/.cache/gem5/x86-parsec:  36%|###5      | 8.59G/24.0G [00:28<00:47, 349MB/s]Computing md5sum on /root/.cache/gem5/x86-parsec:  36%|###5      | 8.62G/24.0G [00:28<00:46, 352MB/s]Computing md5sum on /root/.cache/gem5/x86-parsec:  36%|###6      | 8.65G/24.0G [00:28<00:48, 338MB/s]Computing md5sum on /root/.cache/gem5/x86-parsec:  36%|###6      | 8.68G/24.0G [00:28<00:49, 332MB/s]Computing md5sum on /root/.cache/gem5/x86-parsec:  36%|###6      | 8.71G/24.0G [00:28<00:48, 335MB/s]Computing md5sum on /root/.cache/gem5/x86-parsec:  36%|###6      | 8.74G/24.0G [00:28<00:50, 326MB/s]Computing md5sum on /root/.cache/gem5/x86-parsec:  37%|###6      | 8.77G/24.0G [00:29<00:48, 336MB/s]Computing md5sum on /root/.cache/gem5/x86-parsec:  37%|###6      | 8.81G/24.0G [00:29<00:47, 346MB/s]Computing md5sum on /root/.cache/gem5/x86-parsec:  37%|###6      | 8.84G/24.0G [00:29<00:46, 350MB/s]Computing md5sum on /root/.cache/gem5/x86-parsec:  37%|###6      | 8.87G/24.0G [00:29<00:46, 348MB/s]Computing md5sum on /root/.cache/gem5/x86-parsec:  37%|###7      | 8.91G/24.0G [00:29<00:46, 349MB/s]Computing md5sum on /root/.cache/gem5/x86-parsec:  37%|###7      | 8.94G/24.0G [00:29<00:46, 346MB/s]Computing md5sum on /root/.cache/gem5/x86-parsec:  37%|###7      | 8.97G/24.0G [00:29<00:45, 352MB/s]Computing md5sum on /root/.cache/gem5/x86-parsec:  38%|###7      | 9.00G/24.0G [00:29<00:45, 354MB/s]Computing md5sum on /root/.cache/gem5/x86-parsec:  38%|###7      | 9.04G/24.0G [00:29<00:45, 354MB/s]Computing md5sum on /root/.cache/gem5/x86-parsec:  38%|###7      | 9.07G/24.0G [00:29<00:45, 350MB/s]Computing md5sum on /root/.cache/gem5/x86-parsec:  38%|###7      | 9.10G/24.0G [00:30<00:45, 349MB/s]Computing md5sum on /root/.cache/gem5/x86-parsec:  38%|###8      | 9.14G/24.0G [00:30<00:45, 354MB/s]Computing md5sum on /root/.cache/gem5/x86-parsec:  38%|###8      | 9.17G/24.0G [00:30<00:44, 356MB/s]Computing md5sum on /root/.cache/gem5/x86-parsec:  38%|###8      | 9.20G/24.0G [00:30<00:45, 351MB/s]Computing md5sum on /root/.cache/gem5/x86-parsec:  38%|###8      | 9.24G/24.0G [00:30<00:44, 357MB/s]Computing md5sum on /root/.cache/gem5/x86-parsec:  39%|###8      | 9.27G/24.0G [00:30<00:43, 360MB/s]Computing md5sum on /root/.cache/gem5/x86-parsec:  39%|###8      | 9.30G/24.0G [00:30<00:43, 361MB/s]Computing md5sum on /root/.cache/gem5/x86-parsec:  39%|###8      | 9.33G/24.0G [00:30<00:44, 353MB/s]Computing md5sum on /root/.cache/gem5/x86-parsec:  39%|###9      | 9.37G/24.0G [00:30<00:44, 355MB/s]Computing md5sum on /root/.cache/gem5/x86-parsec:  39%|###9      | 9.40G/24.0G [00:30<00:44, 349MB/s]Computing md5sum on /root/.cache/gem5/x86-parsec:  39%|###9      | 9.43G/24.0G [00:31<00:44, 353MB/s]Computing md5sum on /root/.cache/gem5/x86-parsec:  39%|###9      | 9.46G/24.0G [00:31<00:44, 347MB/s]Computing md5sum on /root/.cache/gem5/x86-parsec:  40%|###9      | 9.50G/24.0G [00:31<00:43, 354MB/s]Computing md5sum on /root/.cache/gem5/x86-parsec:  40%|###9      | 9.53G/24.0G [00:31<00:44, 345MB/s]Computing md5sum on /root/.cache/gem5/x86-parsec:  40%|###9      | 9.56G/24.0G [00:31<00:47, 330MB/s]Computing md5sum on /root/.cache/gem5/x86-parsec:  40%|###9      | 9.59G/24.0G [00:31<00:47, 324MB/s]Computing md5sum on /root/.cache/gem5/x86-parsec:  40%|####      | 9.62G/24.0G [00:31<00:47, 326MB/s]Computing md5sum on /root/.cache/gem5/x86-parsec:  40%|####      | 9.65G/24.0G [00:31<00:46, 330MB/s]Computing md5sum on /root/.cache/gem5/x86-parsec:  40%|####      | 9.68G/24.0G [00:31<00:46, 330MB/s]Computing md5sum on /root/.cache/gem5/x86-parsec:  40%|####      | 9.71G/24.0G [00:31<00:48, 318MB/s]Computing md5sum on /root/.cache/gem5/x86-parsec:  41%|####      | 9.73G/24.0G [00:32<00:51, 299MB/s]Computing md5sum on /root/.cache/gem5/x86-parsec:  41%|####      | 9.75G/24.0G [00:32<00:52, 292MB/s]Computing md5sum on /root/.cache/gem5/x86-parsec:  41%|####      | 9.78G/24.0G [00:32<00:53, 284MB/s]Computing md5sum on /root/.cache/gem5/x86-parsec:  41%|####      | 9.81G/24.0G [00:32<00:54, 281MB/s]Computing md5sum on /root/.cache/gem5/x86-parsec:  41%|####      | 9.83G/24.0G [00:32<00:55, 274MB/s]Computing md5sum on /root/.cache/gem5/x86-parsec:  41%|####1     | 9.86G/24.0G [00:32<00:54, 276MB/s]Computing md5sum on /root/.cache/gem5/x86-parsec:  41%|####1     | 9.89G/24.0G [00:32<00:51, 294MB/s]Computing md5sum on /root/.cache/gem5/x86-parsec:  41%|####1     | 9.92G/24.0G [00:32<00:48, 315MB/s]Computing md5sum on /root/.cache/gem5/x86-parsec:  41%|####1     | 9.95G/24.0G [00:32<00:46, 325MB/s]Computing md5sum on /root/.cache/gem5/x86-parsec:  42%|####1     | 9.99G/24.0G [00:32<00:44, 337MB/s]Computing md5sum on /root/.cache/gem5/x86-parsec:  42%|####1     | 10.0G/24.0G [00:33<00:43, 347MB/s]Computing md5sum on /root/.cache/gem5/x86-parsec:  42%|####1     | 10.1G/24.0G [00:33<00:42, 351MB/s]Computing md5sum on /root/.cache/gem5/x86-parsec:  42%|####2     | 10.1G/24.0G [00:33<00:43, 346MB/s]Computing md5sum on /root/.cache/gem5/x86-parsec:  42%|####2     | 10.1G/24.0G [00:33<00:42, 348MB/s]Computing md5sum on /root/.cache/gem5/x86-parsec:  42%|####2     | 10.1G/24.0G [00:33<00:43, 343MB/s]Computing md5sum on /root/.cache/gem5/x86-parsec:  42%|####2     | 10.2G/24.0G [00:33<00:43, 342MB/s]Computing md5sum on /root/.cache/gem5/x86-parsec:  43%|####2     | 10.2G/24.0G [00:33<00:42, 345MB/s]Computing md5sum on /root/.cache/gem5/x86-parsec:  43%|####2     | 10.2G/24.0G [00:33<00:42, 348MB/s]Computing md5sum on /root/.cache/gem5/x86-parsec:  43%|####2     | 10.3G/24.0G [00:33<00:41, 353MB/s]Computing md5sum on /root/.cache/gem5/x86-parsec:  43%|####2     | 10.3G/24.0G [00:33<00:40, 359MB/s]Computing md5sum on /root/.cache/gem5/x86-parsec:  43%|####3     | 10.3G/24.0G [00:34<00:40, 360MB/s]Computing md5sum on /root/.cache/gem5/x86-parsec:  43%|####3     | 10.4G/24.0G [00:34<00:40, 360MB/s]Computing md5sum on /root/.cache/gem5/x86-parsec:  43%|####3     | 10.4G/24.0G [00:34<00:40, 359MB/s]Computing md5sum on /root/.cache/gem5/x86-parsec:  44%|####3     | 10.4G/24.0G [00:34<00:42, 346MB/s]Computing md5sum on /root/.cache/gem5/x86-parsec:  44%|####3     | 10.5G/24.0G [00:34<00:42, 340MB/s]Computing md5sum on /root/.cache/gem5/x86-parsec:  44%|####3     | 10.5G/24.0G [00:34<00:41, 345MB/s]Computing md5sum on /root/.cache/gem5/x86-parsec:  44%|####3     | 10.5G/24.0G [00:34<00:41, 351MB/s]Computing md5sum on /root/.cache/gem5/x86-parsec:  44%|####4     | 10.6G/24.0G [00:34<00:40, 358MB/s]Computing md5sum on /root/.cache/gem5/x86-parsec:  44%|####4     | 10.6G/24.0G [00:34<00:39, 360MB/s]Computing md5sum on /root/.cache/gem5/x86-parsec:  44%|####4     | 10.6G/24.0G [00:34<00:41, 347MB/s]Computing md5sum on /root/.cache/gem5/x86-parsec:  44%|####4     | 10.7G/24.0G [00:35<00:41, 344MB/s]Computing md5sum on /root/.cache/gem5/x86-parsec:  45%|####4     | 10.7G/24.0G [00:35<00:40, 349MB/s]Computing md5sum on /root/.cache/gem5/x86-parsec:  45%|####4     | 10.7G/24.0G [00:35<00:41, 342MB/s]Computing md5sum on /root/.cache/gem5/x86-parsec:  45%|####4     | 10.8G/24.0G [00:35<00:41, 343MB/s]Computing md5sum on /root/.cache/gem5/x86-parsec:  45%|####5     | 10.8G/24.0G [00:35<00:41, 339MB/s]Computing md5sum on /root/.cache/gem5/x86-parsec:  45%|####5     | 10.8G/24.0G [00:35<00:41, 341MB/s]Computing md5sum on /root/.cache/gem5/x86-parsec:  45%|####5     | 10.9G/24.0G [00:35<00:41, 344MB/s]Computing md5sum on /root/.cache/gem5/x86-parsec:  45%|####5     | 10.9G/24.0G [00:35<00:40, 347MB/s]Computing md5sum on /root/.cache/gem5/x86-parsec:  46%|####5     | 10.9G/24.0G [00:35<00:41, 342MB/s]Computing md5sum on /root/.cache/gem5/x86-parsec:  46%|####5     | 11.0G/24.0G [00:35<00:40, 344MB/s]Computing md5sum on /root/.cache/gem5/x86-parsec:  46%|####5     | 11.0G/24.0G [00:36<00:40, 347MB/s]Computing md5sum on /root/.cache/gem5/x86-parsec:  46%|####5     | 11.0G/24.0G [00:36<00:40, 343MB/s]Computing md5sum on /root/.cache/gem5/x86-parsec:  46%|####6     | 11.1G/24.0G [00:36<00:41, 334MB/s]Computing md5sum on /root/.cache/gem5/x86-parsec:  46%|####6     | 11.1G/24.0G [00:36<00:40, 342MB/s]Computing md5sum on /root/.cache/gem5/x86-parsec:  46%|####6     | 11.1G/24.0G [00:36<00:39, 352MB/s]Computing md5sum on /root/.cache/gem5/x86-parsec:  46%|####6     | 11.2G/24.0G [00:36<00:38, 354MB/s]Computing md5sum on /root/.cache/gem5/x86-parsec:  47%|####6     | 11.2G/24.0G [00:36<00:37, 362MB/s]Computing md5sum on /root/.cache/gem5/x86-parsec:  47%|####6     | 11.2G/24.0G [00:36<00:37, 365MB/s]Computing md5sum on /root/.cache/gem5/x86-parsec:  47%|####6     | 11.3G/24.0G [00:36<00:37, 366MB/s]Computing md5sum on /root/.cache/gem5/x86-parsec:  47%|####7     | 11.3G/24.0G [00:36<00:38, 356MB/s]Computing md5sum on /root/.cache/gem5/x86-parsec:  47%|####7     | 11.3G/24.0G [00:37<00:37, 360MB/s]Computing md5sum on /root/.cache/gem5/x86-parsec:  47%|####7     | 11.4G/24.0G [00:37<00:37, 363MB/s]Computing md5sum on /root/.cache/gem5/x86-parsec:  47%|####7     | 11.4G/24.0G [00:37<00:37, 363MB/s]Computing md5sum on /root/.cache/gem5/x86-parsec:  48%|####7     | 11.4G/24.0G [00:37<00:37, 365MB/s]Computing md5sum on /root/.cache/gem5/x86-parsec:  48%|####7     | 11.5G/24.0G [00:37<00:36, 367MB/s]Computing md5sum on /root/.cache/gem5/x86-parsec:  48%|####7     | 11.5G/24.0G [00:37<00:36, 370MB/s]Computing md5sum on /root/.cache/gem5/x86-parsec:  48%|####8     | 11.5G/24.0G [00:37<00:35, 373MB/s]Computing md5sum on /root/.cache/gem5/x86-parsec:  48%|####8     | 11.6G/24.0G [00:37<00:35, 372MB/s]Computing md5sum on /root/.cache/gem5/x86-parsec:  48%|####8     | 11.6G/24.0G [00:37<00:35, 371MB/s]Computing md5sum on /root/.cache/gem5/x86-parsec:  48%|####8     | 11.6G/24.0G [00:37<00:35, 369MB/s]Computing md5sum on /root/.cache/gem5/x86-parsec:  49%|####8     | 11.7G/24.0G [00:38<00:37, 357MB/s]Computing md5sum on /root/.cache/gem5/x86-parsec:  49%|####8     | 11.7G/24.0G [00:38<00:37, 348MB/s]Computing md5sum on /root/.cache/gem5/x86-parsec:  49%|####8     | 11.7G/24.0G [00:38<00:37, 349MB/s]Computing md5sum on /root/.cache/gem5/x86-parsec:  49%|####9     | 11.8G/24.0G [00:38<00:37, 352MB/s]Computing md5sum on /root/.cache/gem5/x86-parsec:  49%|####9     | 11.8G/24.0G [00:38<00:37, 347MB/s]Computing md5sum on /root/.cache/gem5/x86-parsec:  49%|####9     | 11.8G/24.0G [00:38<00:36, 353MB/s]Computing md5sum on /root/.cache/gem5/x86-parsec:  49%|####9     | 11.9G/24.0G [00:38<00:36, 360MB/s]Computing md5sum on /root/.cache/gem5/x86-parsec:  50%|####9     | 11.9G/24.0G [00:38<00:35, 362MB/s]Computing md5sum on /root/.cache/gem5/x86-parsec:  50%|####9     | 11.9G/24.0G [00:38<00:35, 364MB/s]Computing md5sum on /root/.cache/gem5/x86-parsec:  50%|####9     | 12.0G/24.0G [00:38<00:35, 360MB/s]Computing md5sum on /root/.cache/gem5/x86-parsec:  50%|####9     | 12.0G/24.0G [00:39<00:36, 354MB/s]Computing md5sum on /root/.cache/gem5/x86-parsec:  50%|#####     | 12.0G/24.0G [00:39<00:36, 348MB/s]Computing md5sum on /root/.cache/gem5/x86-parsec:  50%|#####     | 12.1G/24.0G [00:39<00:37, 345MB/s]Computing md5sum on /root/.cache/gem5/x86-parsec:  50%|#####     | 12.1G/24.0G [00:39<00:37, 343MB/s]Computing md5sum on /root/.cache/gem5/x86-parsec:  51%|#####     | 12.1G/24.0G [00:39<00:36, 350MB/s]Computing md5sum on /root/.cache/gem5/x86-parsec:  51%|#####     | 12.2G/24.0G [00:39<00:36, 353MB/s]Computing md5sum on /root/.cache/gem5/x86-parsec:  51%|#####     | 12.2G/24.0G [00:39<00:35, 354MB/s]Computing md5sum on /root/.cache/gem5/x86-parsec:  51%|#####     | 12.2G/24.0G [00:39<00:35, 358MB/s]Computing md5sum on /root/.cache/gem5/x86-parsec:  51%|#####1    | 12.3G/24.0G [00:39<00:34, 362MB/s]Computing md5sum on /root/.cache/gem5/x86-parsec:  51%|#####1    | 12.3G/24.0G [00:39<00:34, 364MB/s]Computing md5sum on /root/.cache/gem5/x86-parsec:  51%|#####1    | 12.3G/24.0G [00:40<00:34, 359MB/s]Computing md5sum on /root/.cache/gem5/x86-parsec:  52%|#####1    | 12.4G/24.0G [00:40<00:34, 361MB/s]Computing md5sum on /root/.cache/gem5/x86-parsec:  52%|#####1    | 12.4G/24.0G [00:40<00:33, 367MB/s]Computing md5sum on /root/.cache/gem5/x86-parsec:  52%|#####1    | 12.4G/24.0G [00:40<00:35, 354MB/s]Computing md5sum on /root/.cache/gem5/x86-parsec:  52%|#####1    | 12.5G/24.0G [00:40<00:34, 359MB/s]Computing md5sum on /root/.cache/gem5/x86-parsec:  52%|#####2    | 12.5G/24.0G [00:40<00:33, 364MB/s]Computing md5sum on /root/.cache/gem5/x86-parsec:  52%|#####2    | 12.5G/24.0G [00:40<00:34, 355MB/s]Computing md5sum on /root/.cache/gem5/x86-parsec:  52%|#####2    | 12.6G/24.0G [00:40<00:34, 359MB/s]Computing md5sum on /root/.cache/gem5/x86-parsec:  52%|#####2    | 12.6G/24.0G [00:40<00:34, 356MB/s]Computing md5sum on /root/.cache/gem5/x86-parsec:  53%|#####2    | 12.6G/24.0G [00:40<00:34, 352MB/s]Computing md5sum on /root/.cache/gem5/x86-parsec:  53%|#####2    | 12.7G/24.0G [00:41<00:34, 352MB/s]Computing md5sum on /root/.cache/gem5/x86-parsec:  53%|#####2    | 12.7G/24.0G [00:41<00:34, 349MB/s]Computing md5sum on /root/.cache/gem5/x86-parsec:  53%|#####3    | 12.7G/24.0G [00:41<00:35, 339MB/s]Computing md5sum on /root/.cache/gem5/x86-parsec:  53%|#####3    | 12.7G/24.0G [00:41<00:37, 323MB/s]Computing md5sum on /root/.cache/gem5/x86-parsec:  53%|#####3    | 12.8G/24.0G [00:41<00:37, 319MB/s]Computing md5sum on /root/.cache/gem5/x86-parsec:  53%|#####3    | 12.8G/24.0G [00:41<00:37, 316MB/s]Computing md5sum on /root/.cache/gem5/x86-parsec:  53%|#####3    | 12.8G/24.0G [00:41<00:38, 312MB/s]Computing md5sum on /root/.cache/gem5/x86-parsec:  54%|#####3    | 12.9G/24.0G [00:41<00:37, 315MB/s]Computing md5sum on /root/.cache/gem5/x86-parsec:  54%|#####3    | 12.9G/24.0G [00:41<00:37, 321MB/s]Computing md5sum on /root/.cache/gem5/x86-parsec:  54%|#####3    | 12.9G/24.0G [00:41<00:38, 312MB/s]Computing md5sum on /root/.cache/gem5/x86-parsec:  54%|#####3    | 12.9G/24.0G [00:42<00:39, 302MB/s]Computing md5sum on /root/.cache/gem5/x86-parsec:  54%|#####4    | 13.0G/24.0G [00:42<00:39, 301MB/s]Computing md5sum on /root/.cache/gem5/x86-parsec:  54%|#####4    | 13.0G/24.0G [00:42<00:40, 289MB/s]Computing md5sum on /root/.cache/gem5/x86-parsec:  54%|#####4    | 13.0G/24.0G [00:42<00:42, 279MB/s]Computing md5sum on /root/.cache/gem5/x86-parsec:  54%|#####4    | 13.0G/24.0G [00:42<00:44, 261MB/s]Computing md5sum on /root/.cache/gem5/x86-parsec:  54%|#####4    | 13.1G/24.0G [00:42<00:46, 253MB/s]Computing md5sum on /root/.cache/gem5/x86-parsec:  55%|#####4    | 13.1G/24.0G [00:42<00:47, 247MB/s]Computing md5sum on /root/.cache/gem5/x86-parsec:  55%|#####4    | 13.1G/24.0G [00:42<00:47, 247MB/s]Computing md5sum on /root/.cache/gem5/x86-parsec:  55%|#####4    | 13.1G/24.0G [00:42<00:44, 260MB/s]Computing md5sum on /root/.cache/gem5/x86-parsec:  55%|#####4    | 13.2G/24.0G [00:42<00:42, 272MB/s]Computing md5sum on /root/.cache/gem5/x86-parsec:  55%|#####4    | 13.2G/24.0G [00:43<00:42, 273MB/s]Computing md5sum on /root/.cache/gem5/x86-parsec:  55%|#####5    | 13.2G/24.0G [00:43<00:45, 256MB/s]Computing md5sum on /root/.cache/gem5/x86-parsec:  55%|#####5    | 13.2G/24.0G [00:43<00:45, 255MB/s]Computing md5sum on /root/.cache/gem5/x86-parsec:  55%|#####5    | 13.3G/24.0G [00:43<00:47, 245MB/s]Computing md5sum on /root/.cache/gem5/x86-parsec:  55%|#####5    | 13.3G/24.0G [00:43<00:48, 238MB/s]Computing md5sum on /root/.cache/gem5/x86-parsec:  55%|#####5    | 13.3G/24.0G [00:43<00:44, 256MB/s]Computing md5sum on /root/.cache/gem5/x86-parsec:  56%|#####5    | 13.3G/24.0G [00:43<00:42, 272MB/s]Computing md5sum on /root/.cache/gem5/x86-parsec:  56%|#####5    | 13.4G/24.0G [00:43<00:40, 282MB/s]Computing md5sum on /root/.cache/gem5/x86-parsec:  56%|#####5    | 13.4G/24.0G [00:43<00:41, 277MB/s]Computing md5sum on /root/.cache/gem5/x86-parsec:  56%|#####5    | 13.4G/24.0G [00:43<00:42, 268MB/s]Computing md5sum on /root/.cache/gem5/x86-parsec:  56%|#####5    | 13.4G/24.0G [00:44<00:42, 266MB/s]Computing md5sum on /root/.cache/gem5/x86-parsec:  56%|#####6    | 13.5G/24.0G [00:44<00:43, 262MB/s]Computing md5sum on /root/.cache/gem5/x86-parsec:  56%|#####6    | 13.5G/24.0G [00:44<00:42, 264MB/s]Computing md5sum on /root/.cache/gem5/x86-parsec:  56%|#####6    | 13.5G/24.0G [00:44<00:41, 269MB/s]Computing md5sum on /root/.cache/gem5/x86-parsec:  56%|#####6    | 13.5G/24.0G [00:44<00:40, 278MB/s]Computing md5sum on /root/.cache/gem5/x86-parsec:  57%|#####6    | 13.6G/24.0G [00:44<00:39, 282MB/s]Computing md5sum on /root/.cache/gem5/x86-parsec:  57%|#####6    | 13.6G/24.0G [00:44<00:39, 284MB/s]Computing md5sum on /root/.cache/gem5/x86-parsec:  57%|#####6    | 13.6G/24.0G [00:44<00:38, 289MB/s]Computing md5sum on /root/.cache/gem5/x86-parsec:  57%|#####6    | 13.6G/24.0G [00:44<00:37, 294MB/s]Computing md5sum on /root/.cache/gem5/x86-parsec:  57%|#####6    | 13.7G/24.0G [00:44<00:37, 299MB/s]Computing md5sum on /root/.cache/gem5/x86-parsec:  57%|#####7    | 13.7G/24.0G [00:45<00:38, 287MB/s]Computing md5sum on /root/.cache/gem5/x86-parsec:  57%|#####7    | 13.7G/24.0G [00:45<00:38, 287MB/s]Computing md5sum on /root/.cache/gem5/x86-parsec:  57%|#####7    | 13.8G/24.0G [00:45<00:37, 292MB/s]Computing md5sum on /root/.cache/gem5/x86-parsec:  57%|#####7    | 13.8G/24.0G [00:45<00:37, 296MB/s]Computing md5sum on /root/.cache/gem5/x86-parsec:  58%|#####7    | 13.8G/24.0G [00:45<00:36, 300MB/s]Computing md5sum on /root/.cache/gem5/x86-parsec:  58%|#####7    | 13.8G/24.0G [00:45<00:36, 303MB/s]Computing md5sum on /root/.cache/gem5/x86-parsec:  58%|#####7    | 13.9G/24.0G [00:45<00:37, 289MB/s]Computing md5sum on /root/.cache/gem5/x86-parsec:  58%|#####7    | 13.9G/24.0G [00:45<00:36, 296MB/s]Computing md5sum on /root/.cache/gem5/x86-parsec:  58%|#####8    | 13.9G/24.0G [00:45<00:36, 293MB/s]Computing md5sum on /root/.cache/gem5/x86-parsec:  58%|#####8    | 13.9G/24.0G [00:45<00:37, 284MB/s]Computing md5sum on /root/.cache/gem5/x86-parsec:  58%|#####8    | 14.0G/24.0G [00:46<00:38, 282MB/s]Computing md5sum on /root/.cache/gem5/x86-parsec:  58%|#####8    | 14.0G/24.0G [00:46<00:37, 285MB/s]Computing md5sum on /root/.cache/gem5/x86-parsec:  58%|#####8    | 14.0G/24.0G [00:46<00:38, 279MB/s]Computing md5sum on /root/.cache/gem5/x86-parsec:  59%|#####8    | 14.1G/24.0G [00:46<00:38, 278MB/s]Computing md5sum on /root/.cache/gem5/x86-parsec:  59%|#####8    | 14.1G/24.0G [00:46<00:39, 271MB/s]Computing md5sum on /root/.cache/gem5/x86-parsec:  59%|#####8    | 14.1G/24.0G [00:46<00:38, 277MB/s]Computing md5sum on /root/.cache/gem5/x86-parsec:  59%|#####8    | 14.1G/24.0G [00:46<00:36, 290MB/s]Computing md5sum on /root/.cache/gem5/x86-parsec:  59%|#####8    | 14.2G/24.0G [00:46<00:35, 297MB/s]Computing md5sum on /root/.cache/gem5/x86-parsec:  59%|#####9    | 14.2G/24.0G [00:46<00:34, 308MB/s]Computing md5sum on /root/.cache/gem5/x86-parsec:  59%|#####9    | 14.2G/24.0G [00:46<00:33, 310MB/s]Computing md5sum on /root/.cache/gem5/x86-parsec:  59%|#####9    | 14.2G/24.0G [00:47<00:34, 307MB/s]Computing md5sum on /root/.cache/gem5/x86-parsec:  59%|#####9    | 14.3G/24.0G [00:47<00:34, 302MB/s]Computing md5sum on /root/.cache/gem5/x86-parsec:  60%|#####9    | 14.3G/24.0G [00:47<00:35, 294MB/s]Computing md5sum on /root/.cache/gem5/x86-parsec:  60%|#####9    | 14.3G/24.0G [00:47<00:36, 285MB/s]Computing md5sum on /root/.cache/gem5/x86-parsec:  60%|#####9    | 14.4G/24.0G [00:47<00:36, 281MB/s]Computing md5sum on /root/.cache/gem5/x86-parsec:  60%|#####9    | 14.4G/24.0G [00:47<00:36, 281MB/s]Computing md5sum on /root/.cache/gem5/x86-parsec:  60%|######    | 14.4G/24.0G [00:47<00:36, 279MB/s]Computing md5sum on /root/.cache/gem5/x86-parsec:  60%|######    | 14.4G/24.0G [00:47<00:37, 276MB/s]Computing md5sum on /root/.cache/gem5/x86-parsec:  60%|######    | 14.5G/24.0G [00:47<00:35, 291MB/s]Computing md5sum on /root/.cache/gem5/x86-parsec:  60%|######    | 14.5G/24.0G [00:47<00:34, 297MB/s]Computing md5sum on /root/.cache/gem5/x86-parsec:  60%|######    | 14.5G/24.0G [00:48<00:34, 294MB/s]Computing md5sum on /root/.cache/gem5/x86-parsec:  61%|######    | 14.5G/24.0G [00:48<00:34, 291MB/s]Computing md5sum on /root/.cache/gem5/x86-parsec:  61%|######    | 14.6G/24.0G [00:48<00:34, 290MB/s]Computing md5sum on /root/.cache/gem5/x86-parsec:  61%|######    | 14.6G/24.0G [00:48<00:34, 292MB/s]Computing md5sum on /root/.cache/gem5/x86-parsec:  61%|######    | 14.6G/24.0G [00:48<00:35, 286MB/s]Computing md5sum on /root/.cache/gem5/x86-parsec:  61%|######1   | 14.6G/24.0G [00:48<00:34, 287MB/s]Computing md5sum on /root/.cache/gem5/x86-parsec:  61%|######1   | 14.7G/24.0G [00:48<00:35, 282MB/s]Computing md5sum on /root/.cache/gem5/x86-parsec:  61%|######1   | 14.7G/24.0G [00:48<00:34, 286MB/s]Computing md5sum on /root/.cache/gem5/x86-parsec:  61%|######1   | 14.7G/24.0G [00:48<00:33, 296MB/s]Computing md5sum on /root/.cache/gem5/x86-parsec:  61%|######1   | 14.8G/24.0G [00:48<00:34, 292MB/s]Computing md5sum on /root/.cache/gem5/x86-parsec:  62%|######1   | 14.8G/24.0G [00:49<00:33, 294MB/s]Computing md5sum on /root/.cache/gem5/x86-parsec:  62%|######1   | 14.8G/24.0G [00:49<00:33, 295MB/s]Computing md5sum on /root/.cache/gem5/x86-parsec:  62%|######1   | 14.8G/24.0G [00:49<00:35, 275MB/s]Computing md5sum on /root/.cache/gem5/x86-parsec:  62%|######1   | 14.9G/24.0G [00:49<00:36, 266MB/s]Computing md5sum on /root/.cache/gem5/x86-parsec:  62%|######1   | 14.9G/24.0G [00:49<00:36, 266MB/s]Computing md5sum on /root/.cache/gem5/x86-parsec:  62%|######2   | 14.9G/24.0G [00:49<00:34, 280MB/s]Computing md5sum on /root/.cache/gem5/x86-parsec:  62%|######2   | 14.9G/24.0G [00:49<00:34, 284MB/s]Computing md5sum on /root/.cache/gem5/x86-parsec:  62%|######2   | 15.0G/24.0G [00:49<00:34, 283MB/s]Computing md5sum on /root/.cache/gem5/x86-parsec:  62%|######2   | 15.0G/24.0G [00:49<00:34, 277MB/s]Computing md5sum on /root/.cache/gem5/x86-parsec:  63%|######2   | 15.0G/24.0G [00:49<00:33, 289MB/s]Computing md5sum on /root/.cache/gem5/x86-parsec:  63%|######2   | 15.0G/24.0G [00:50<00:32, 294MB/s]Computing md5sum on /root/.cache/gem5/x86-parsec:  63%|######2   | 15.1G/24.0G [00:50<00:32, 296MB/s]Computing md5sum on /root/.cache/gem5/x86-parsec:  63%|######2   | 15.1G/24.0G [00:50<00:31, 300MB/s]Computing md5sum on /root/.cache/gem5/x86-parsec:  63%|######3   | 15.1G/24.0G [00:50<00:32, 296MB/s]Computing md5sum on /root/.cache/gem5/x86-parsec:  63%|######3   | 15.2G/24.0G [00:50<00:31, 304MB/s]Computing md5sum on /root/.cache/gem5/x86-parsec:  63%|######3   | 15.2G/24.0G [00:50<00:30, 305MB/s]Computing md5sum on /root/.cache/gem5/x86-parsec:  63%|######3   | 15.2G/24.0G [00:50<00:30, 309MB/s]Computing md5sum on /root/.cache/gem5/x86-parsec:  64%|######3   | 15.2G/24.0G [00:50<00:30, 303MB/s]Computing md5sum on /root/.cache/gem5/x86-parsec:  64%|######3   | 15.3G/24.0G [00:50<00:30, 312MB/s]Computing md5sum on /root/.cache/gem5/x86-parsec:  64%|######3   | 15.3G/24.0G [00:50<00:30, 310MB/s]Computing md5sum on /root/.cache/gem5/x86-parsec:  64%|######3   | 15.3G/24.0G [00:51<00:32, 285MB/s]Computing md5sum on /root/.cache/gem5/x86-parsec:  64%|######3   | 15.3G/24.0G [00:51<00:33, 277MB/s]Computing md5sum on /root/.cache/gem5/x86-parsec:  64%|######4   | 15.4G/24.0G [00:51<00:33, 273MB/s]Computing md5sum on /root/.cache/gem5/x86-parsec:  64%|######4   | 15.4G/24.0G [00:51<00:33, 274MB/s]Computing md5sum on /root/.cache/gem5/x86-parsec:  64%|######4   | 15.4G/24.0G [00:51<00:36, 252MB/s]Computing md5sum on /root/.cache/gem5/x86-parsec:  64%|######4   | 15.4G/24.0G [00:51<00:36, 252MB/s]Computing md5sum on /root/.cache/gem5/x86-parsec:  64%|######4   | 15.5G/24.0G [00:51<00:33, 274MB/s]Computing md5sum on /root/.cache/gem5/x86-parsec:  65%|######4   | 15.5G/24.0G [00:51<00:30, 295MB/s]Computing md5sum on /root/.cache/gem5/x86-parsec:  65%|######4   | 15.5G/24.0G [00:51<00:29, 310MB/s]Computing md5sum on /root/.cache/gem5/x86-parsec:  65%|######4   | 15.6G/24.0G [00:51<00:29, 310MB/s]Computing md5sum on /root/.cache/gem5/x86-parsec:  65%|######4   | 15.6G/24.0G [00:52<00:29, 306MB/s]Computing md5sum on /root/.cache/gem5/x86-parsec:  65%|######5   | 15.6G/24.0G [00:52<00:28, 313MB/s]Computing md5sum on /root/.cache/gem5/x86-parsec:  65%|######5   | 15.7G/24.0G [00:52<00:28, 311MB/s]Computing md5sum on /root/.cache/gem5/x86-parsec:  65%|######5   | 15.7G/24.0G [00:52<00:29, 300MB/s]Computing md5sum on /root/.cache/gem5/x86-parsec:  65%|######5   | 15.7G/24.0G [00:52<00:29, 306MB/s]Computing md5sum on /root/.cache/gem5/x86-parsec:  66%|######5   | 15.7G/24.0G [00:52<00:29, 302MB/s]Computing md5sum on /root/.cache/gem5/x86-parsec:  66%|######5   | 15.8G/24.0G [00:52<00:28, 306MB/s]Computing md5sum on /root/.cache/gem5/x86-parsec:  66%|######5   | 15.8G/24.0G [00:52<00:28, 308MB/s]Computing md5sum on /root/.cache/gem5/x86-parsec:  66%|######5   | 15.8G/24.0G [00:52<00:27, 316MB/s]Computing md5sum on /root/.cache/gem5/x86-parsec:  66%|######6   | 15.9G/24.0G [00:52<00:27, 317MB/s]Computing md5sum on /root/.cache/gem5/x86-parsec:  66%|######6   | 15.9G/24.0G [00:53<00:26, 325MB/s]Computing md5sum on /root/.cache/gem5/x86-parsec:  66%|######6   | 15.9G/24.0G [00:53<00:25, 336MB/s]Computing md5sum on /root/.cache/gem5/x86-parsec:  66%|######6   | 15.9G/24.0G [00:53<00:27, 318MB/s]Computing md5sum on /root/.cache/gem5/x86-parsec:  67%|######6   | 16.0G/24.0G [00:53<00:28, 301MB/s]Computing md5sum on /root/.cache/gem5/x86-parsec:  67%|######6   | 16.0G/24.0G [00:53<00:28, 298MB/s]Computing md5sum on /root/.cache/gem5/x86-parsec:  67%|######6   | 16.0G/24.0G [00:53<00:27, 307MB/s]Computing md5sum on /root/.cache/gem5/x86-parsec:  67%|######6   | 16.1G/24.0G [00:53<00:28, 303MB/s]Computing md5sum on /root/.cache/gem5/x86-parsec:  67%|######6   | 16.1G/24.0G [00:53<00:29, 293MB/s]Computing md5sum on /root/.cache/gem5/x86-parsec:  67%|######7   | 16.1G/24.0G [00:53<00:27, 304MB/s]Computing md5sum on /root/.cache/gem5/x86-parsec:  67%|######7   | 16.1G/24.0G [00:53<00:28, 293MB/s]Computing md5sum on /root/.cache/gem5/x86-parsec:  67%|######7   | 16.2G/24.0G [00:54<00:27, 305MB/s]Computing md5sum on /root/.cache/gem5/x86-parsec:  67%|######7   | 16.2G/24.0G [00:54<00:26, 317MB/s]Computing md5sum on /root/.cache/gem5/x86-parsec:  68%|######7   | 16.2G/24.0G [00:54<00:25, 323MB/s]Computing md5sum on /root/.cache/gem5/x86-parsec:  68%|######7   | 16.3G/24.0G [00:54<00:25, 328MB/s]Computing md5sum on /root/.cache/gem5/x86-parsec:  68%|######7   | 16.3G/24.0G [00:54<00:24, 332MB/s]Computing md5sum on /root/.cache/gem5/x86-parsec:  68%|######8   | 16.3G/24.0G [00:54<00:25, 322MB/s]Computing md5sum on /root/.cache/gem5/x86-parsec:  68%|######8   | 16.3G/24.0G [00:54<00:26, 312MB/s]Computing md5sum on /root/.cache/gem5/x86-parsec:  68%|######8   | 16.4G/24.0G [00:54<00:27, 295MB/s]Computing md5sum on /root/.cache/gem5/x86-parsec:  68%|######8   | 16.4G/24.0G [00:54<00:27, 292MB/s]Computing md5sum on /root/.cache/gem5/x86-parsec:  68%|######8   | 16.4G/24.0G [00:54<00:27, 291MB/s]Computing md5sum on /root/.cache/gem5/x86-parsec:  69%|######8   | 16.5G/24.0G [00:55<00:27, 298MB/s]Computing md5sum on /root/.cache/gem5/x86-parsec:  69%|######8   | 16.5G/24.0G [00:55<00:26, 300MB/s]Computing md5sum on /root/.cache/gem5/x86-parsec:  69%|######8   | 16.5G/24.0G [00:55<00:25, 310MB/s]Computing md5sum on /root/.cache/gem5/x86-parsec:  69%|######8   | 16.5G/24.0G [00:55<00:26, 307MB/s]Computing md5sum on /root/.cache/gem5/x86-parsec:  69%|######9   | 16.6G/24.0G [00:55<00:25, 313MB/s]Computing md5sum on /root/.cache/gem5/x86-parsec:  69%|######9   | 16.6G/24.0G [00:55<00:24, 320MB/s]Computing md5sum on /root/.cache/gem5/x86-parsec:  69%|######9   | 16.6G/24.0G [00:55<00:26, 304MB/s]Computing md5sum on /root/.cache/gem5/x86-parsec:  69%|######9   | 16.6G/24.0G [00:55<00:29, 265MB/s]Computing md5sum on /root/.cache/gem5/x86-parsec:  69%|######9   | 16.7G/24.0G [00:55<00:29, 263MB/s]Computing md5sum on /root/.cache/gem5/x86-parsec:  70%|######9   | 16.7G/24.0G [00:55<00:29, 266MB/s]Computing md5sum on /root/.cache/gem5/x86-parsec:  70%|######9   | 16.7G/24.0G [00:56<00:28, 276MB/s]Computing md5sum on /root/.cache/gem5/x86-parsec:  70%|######9   | 16.8G/24.0G [00:56<00:26, 290MB/s]Computing md5sum on /root/.cache/gem5/x86-parsec:  70%|######9   | 16.8G/24.0G [00:56<00:25, 298MB/s]Computing md5sum on /root/.cache/gem5/x86-parsec:  70%|#######   | 16.8G/24.0G [00:56<00:25, 303MB/s]Computing md5sum on /root/.cache/gem5/x86-parsec:  70%|#######   | 16.8G/24.0G [00:56<00:24, 316MB/s]Computing md5sum on /root/.cache/gem5/x86-parsec:  70%|#######   | 16.9G/24.0G [00:56<00:23, 319MB/s]Computing md5sum on /root/.cache/gem5/x86-parsec:  70%|#######   | 16.9G/24.0G [00:56<00:23, 329MB/s]Computing md5sum on /root/.cache/gem5/x86-parsec:  71%|#######   | 16.9G/24.0G [00:56<00:22, 334MB/s]Computing md5sum on /root/.cache/gem5/x86-parsec:  71%|#######   | 17.0G/24.0G [00:56<00:22, 333MB/s]Computing md5sum on /root/.cache/gem5/x86-parsec:  71%|#######   | 17.0G/24.0G [00:56<00:22, 327MB/s]Computing md5sum on /root/.cache/gem5/x86-parsec:  71%|#######   | 17.0G/24.0G [00:57<00:22, 339MB/s]Computing md5sum on /root/.cache/gem5/x86-parsec:  71%|#######1  | 17.1G/24.0G [00:57<00:21, 346MB/s]Computing md5sum on /root/.cache/gem5/x86-parsec:  71%|#######1  | 17.1G/24.0G [00:57<00:21, 351MB/s]Computing md5sum on /root/.cache/gem5/x86-parsec:  71%|#######1  | 17.1G/24.0G [00:57<00:21, 345MB/s]Computing md5sum on /root/.cache/gem5/x86-parsec:  72%|#######1  | 17.2G/24.0G [00:57<00:21, 336MB/s]Computing md5sum on /root/.cache/gem5/x86-parsec:  72%|#######1  | 17.2G/24.0G [00:57<00:22, 328MB/s]Computing md5sum on /root/.cache/gem5/x86-parsec:  72%|#######1  | 17.2G/24.0G [00:57<00:22, 322MB/s]Computing md5sum on /root/.cache/gem5/x86-parsec:  72%|#######1  | 17.2G/24.0G [00:57<00:22, 322MB/s]Computing md5sum on /root/.cache/gem5/x86-parsec:  72%|#######1  | 17.3G/24.0G [00:57<00:22, 325MB/s]Computing md5sum on /root/.cache/gem5/x86-parsec:  72%|#######2  | 17.3G/24.0G [00:57<00:22, 321MB/s]Computing md5sum on /root/.cache/gem5/x86-parsec:  72%|#######2  | 17.3G/24.0G [00:58<00:23, 302MB/s]Computing md5sum on /root/.cache/gem5/x86-parsec:  72%|#######2  | 17.4G/24.0G [00:58<00:24, 287MB/s]Computing md5sum on /root/.cache/gem5/x86-parsec:  72%|#######2  | 17.4G/24.0G [00:58<00:25, 282MB/s]Computing md5sum on /root/.cache/gem5/x86-parsec:  73%|#######2  | 17.4G/24.0G [00:58<00:25, 273MB/s]Computing md5sum on /root/.cache/gem5/x86-parsec:  73%|#######2  | 17.4G/24.0G [00:58<00:24, 283MB/s]Computing md5sum on /root/.cache/gem5/x86-parsec:  73%|#######2  | 17.5G/24.0G [00:58<00:25, 279MB/s]Computing md5sum on /root/.cache/gem5/x86-parsec:  73%|#######2  | 17.5G/24.0G [00:58<00:24, 282MB/s]Computing md5sum on /root/.cache/gem5/x86-parsec:  73%|#######2  | 17.5G/24.0G [00:58<00:24, 285MB/s]Computing md5sum on /root/.cache/gem5/x86-parsec:  73%|#######3  | 17.5G/24.0G [00:58<00:23, 291MB/s]Computing md5sum on /root/.cache/gem5/x86-parsec:  73%|#######3  | 17.6G/24.0G [00:58<00:23, 295MB/s]Computing md5sum on /root/.cache/gem5/x86-parsec:  73%|#######3  | 17.6G/24.0G [00:59<00:23, 291MB/s]Computing md5sum on /root/.cache/gem5/x86-parsec:  73%|#######3  | 17.6G/24.0G [00:59<00:23, 288MB/s]Computing md5sum on /root/.cache/gem5/x86-parsec:  74%|#######3  | 17.6G/24.0G [00:59<00:23, 285MB/s]Computing md5sum on /root/.cache/gem5/x86-parsec:  74%|#######3  | 17.7G/24.0G [00:59<00:22, 297MB/s]Computing md5sum on /root/.cache/gem5/x86-parsec:  74%|#######3  | 17.7G/24.0G [00:59<00:22, 299MB/s]Computing md5sum on /root/.cache/gem5/x86-parsec:  74%|#######3  | 17.7G/24.0G [00:59<00:21, 316MB/s]Computing md5sum on /root/.cache/gem5/x86-parsec:  74%|#######4  | 17.8G/24.0G [00:59<00:20, 319MB/s]Computing md5sum on /root/.cache/gem5/x86-parsec:  74%|#######4  | 17.8G/24.0G [00:59<00:21, 307MB/s]Computing md5sum on /root/.cache/gem5/x86-parsec:  74%|#######4  | 17.8G/24.0G [00:59<00:21, 309MB/s]Computing md5sum on /root/.cache/gem5/x86-parsec:  74%|#######4  | 17.9G/24.0G [00:59<00:21, 310MB/s]Computing md5sum on /root/.cache/gem5/x86-parsec:  75%|#######4  | 17.9G/24.0G [01:00<00:21, 308MB/s]Computing md5sum on /root/.cache/gem5/x86-parsec:  75%|#######4  | 17.9G/24.0G [01:00<00:21, 302MB/s]Computing md5sum on /root/.cache/gem5/x86-parsec:  75%|#######4  | 17.9G/24.0G [01:00<00:21, 299MB/s]Computing md5sum on /root/.cache/gem5/x86-parsec:  75%|#######4  | 18.0G/24.0G [01:00<00:22, 285MB/s]Computing md5sum on /root/.cache/gem5/x86-parsec:  75%|#######4  | 18.0G/24.0G [01:00<00:23, 278MB/s]Computing md5sum on /root/.cache/gem5/x86-parsec:  75%|#######5  | 18.0G/24.0G [01:00<00:23, 278MB/s]Computing md5sum on /root/.cache/gem5/x86-parsec:  75%|#######5  | 18.0G/24.0G [01:00<00:22, 283MB/s]Computing md5sum on /root/.cache/gem5/x86-parsec:  75%|#######5  | 18.1G/24.0G [01:00<00:22, 285MB/s]Computing md5sum on /root/.cache/gem5/x86-parsec:  75%|#######5  | 18.1G/24.0G [01:00<00:22, 281MB/s]Computing md5sum on /root/.cache/gem5/x86-parsec:  75%|#######5  | 18.1G/24.0G [01:00<00:22, 278MB/s]Computing md5sum on /root/.cache/gem5/x86-parsec:  76%|#######5  | 18.1G/24.0G [01:01<00:22, 275MB/s]Computing md5sum on /root/.cache/gem5/x86-parsec:  76%|#######5  | 18.2G/24.0G [01:01<00:22, 275MB/s]Computing md5sum on /root/.cache/gem5/x86-parsec:  76%|#######5  | 18.2G/24.0G [01:01<00:21, 288MB/s]Computing md5sum on /root/.cache/gem5/x86-parsec:  76%|#######5  | 18.2G/24.0G [01:01<00:20, 298MB/s]Computing md5sum on /root/.cache/gem5/x86-parsec:  76%|#######6  | 18.2G/24.0G [01:01<00:22, 279MB/s]Computing md5sum on /root/.cache/gem5/x86-parsec:  76%|#######6  | 18.3G/24.0G [01:01<00:22, 278MB/s]Computing md5sum on /root/.cache/gem5/x86-parsec:  76%|#######6  | 18.3G/24.0G [01:01<00:21, 285MB/s]Computing md5sum on /root/.cache/gem5/x86-parsec:  76%|#######6  | 18.3G/24.0G [01:01<00:20, 294MB/s]Computing md5sum on /root/.cache/gem5/x86-parsec:  76%|#######6  | 18.4G/24.0G [01:01<00:20, 292MB/s]Computing md5sum on /root/.cache/gem5/x86-parsec:  77%|#######6  | 18.4G/24.0G [01:01<00:20, 292MB/s]Computing md5sum on /root/.cache/gem5/x86-parsec:  77%|#######6  | 18.4G/24.0G [01:02<00:21, 285MB/s]Computing md5sum on /root/.cache/gem5/x86-parsec:  77%|#######6  | 18.4G/24.0G [01:02<00:21, 281MB/s]Computing md5sum on /root/.cache/gem5/x86-parsec:  77%|#######6  | 18.5G/24.0G [01:02<00:21, 276MB/s]Computing md5sum on /root/.cache/gem5/x86-parsec:  77%|#######7  | 18.5G/24.0G [01:02<00:21, 274MB/s]Computing md5sum on /root/.cache/gem5/x86-parsec:  77%|#######7  | 18.5G/24.0G [01:02<00:22, 261MB/s]Computing md5sum on /root/.cache/gem5/x86-parsec:  77%|#######7  | 18.5G/24.0G [01:02<00:22, 262MB/s]Computing md5sum on /root/.cache/gem5/x86-parsec:  77%|#######7  | 18.6G/24.0G [01:02<00:21, 268MB/s]Computing md5sum on /root/.cache/gem5/x86-parsec:  77%|#######7  | 18.6G/24.0G [01:02<00:20, 277MB/s]Computing md5sum on /root/.cache/gem5/x86-parsec:  78%|#######7  | 18.6G/24.0G [01:02<00:20, 289MB/s]Computing md5sum on /root/.cache/gem5/x86-parsec:  78%|#######7  | 18.6G/24.0G [01:02<00:18, 304MB/s]Computing md5sum on /root/.cache/gem5/x86-parsec:  78%|#######7  | 18.7G/24.0G [01:03<00:19, 300MB/s]Computing md5sum on /root/.cache/gem5/x86-parsec:  78%|#######7  | 18.7G/24.0G [01:03<00:18, 303MB/s]Computing md5sum on /root/.cache/gem5/x86-parsec:  78%|#######8  | 18.7G/24.0G [01:03<00:18, 308MB/s]Computing md5sum on /root/.cache/gem5/x86-parsec:  78%|#######8  | 18.8G/24.0G [01:03<00:18, 310MB/s]Computing md5sum on /root/.cache/gem5/x86-parsec:  78%|#######8  | 18.8G/24.0G [01:03<00:19, 293MB/s]Computing md5sum on /root/.cache/gem5/x86-parsec:  78%|#######8  | 18.8G/24.0G [01:03<00:18, 295MB/s]Computing md5sum on /root/.cache/gem5/x86-parsec:  79%|#######8  | 18.8G/24.0G [01:03<00:18, 301MB/s]Computing md5sum on /root/.cache/gem5/x86-parsec:  79%|#######8  | 18.9G/24.0G [01:03<00:18, 303MB/s]Computing md5sum on /root/.cache/gem5/x86-parsec:  79%|#######8  | 18.9G/24.0G [01:03<00:18, 292MB/s]Computing md5sum on /root/.cache/gem5/x86-parsec:  79%|#######8  | 18.9G/24.0G [01:03<00:18, 294MB/s]Computing md5sum on /root/.cache/gem5/x86-parsec:  79%|#######8  | 18.9G/24.0G [01:04<00:19, 283MB/s]Computing md5sum on /root/.cache/gem5/x86-parsec:  79%|#######9  | 19.0G/24.0G [01:04<00:19, 274MB/s]Computing md5sum on /root/.cache/gem5/x86-parsec:  79%|#######9  | 19.0G/24.0G [01:04<00:20, 264MB/s]Computing md5sum on /root/.cache/gem5/x86-parsec:  79%|#######9  | 19.0G/24.0G [01:04<00:20, 256MB/s]Computing md5sum on /root/.cache/gem5/x86-parsec:  79%|#######9  | 19.0G/24.0G [01:04<00:20, 257MB/s]Computing md5sum on /root/.cache/gem5/x86-parsec:  79%|#######9  | 19.1G/24.0G [01:04<00:20, 260MB/s]Computing md5sum on /root/.cache/gem5/x86-parsec:  80%|#######9  | 19.1G/24.0G [01:04<00:19, 271MB/s]Computing md5sum on /root/.cache/gem5/x86-parsec:  80%|#######9  | 19.1G/24.0G [01:04<00:18, 276MB/s]Computing md5sum on /root/.cache/gem5/x86-parsec:  80%|#######9  | 19.1G/24.0G [01:04<00:18, 281MB/s]Computing md5sum on /root/.cache/gem5/x86-parsec:  80%|#######9  | 19.2G/24.0G [01:04<00:18, 286MB/s]Computing md5sum on /root/.cache/gem5/x86-parsec:  80%|########  | 19.2G/24.0G [01:05<00:17, 288MB/s]Computing md5sum on /root/.cache/gem5/x86-parsec:  80%|########  | 19.2G/24.0G [01:05<00:17, 288MB/s]Computing md5sum on /root/.cache/gem5/x86-parsec:  80%|########  | 19.3G/24.0G [01:05<00:18, 281MB/s]Computing md5sum on /root/.cache/gem5/x86-parsec:  80%|########  | 19.3G/24.0G [01:05<00:19, 267MB/s]Computing md5sum on /root/.cache/gem5/x86-parsec:  80%|########  | 19.3G/24.0G [01:05<00:18, 266MB/s]Computing md5sum on /root/.cache/gem5/x86-parsec:  81%|########  | 19.3G/24.0G [01:05<00:18, 276MB/s]Computing md5sum on /root/.cache/gem5/x86-parsec:  81%|########  | 19.4G/24.0G [01:05<00:18, 277MB/s]Computing md5sum on /root/.cache/gem5/x86-parsec:  81%|########  | 19.4G/24.0G [01:05<00:17, 281MB/s]Computing md5sum on /root/.cache/gem5/x86-parsec:  81%|########  | 19.4G/24.0G [01:05<00:17, 284MB/s]Computing md5sum on /root/.cache/gem5/x86-parsec:  81%|########  | 19.4G/24.0G [01:05<00:17, 287MB/s]Computing md5sum on /root/.cache/gem5/x86-parsec:  81%|########1 | 19.5G/24.0G [01:06<00:17, 285MB/s]Computing md5sum on /root/.cache/gem5/x86-parsec:  81%|########1 | 19.5G/24.0G [01:06<00:17, 275MB/s]Computing md5sum on /root/.cache/gem5/x86-parsec:  81%|########1 | 19.5G/24.0G [01:06<00:17, 274MB/s]Computing md5sum on /root/.cache/gem5/x86-parsec:  81%|########1 | 19.5G/24.0G [01:06<00:17, 270MB/s]Computing md5sum on /root/.cache/gem5/x86-parsec:  81%|########1 | 19.6G/24.0G [01:06<00:17, 268MB/s]Computing md5sum on /root/.cache/gem5/x86-parsec:  82%|########1 | 19.6G/24.0G [01:06<00:17, 276MB/s]Computing md5sum on /root/.cache/gem5/x86-parsec:  82%|########1 | 19.6G/24.0G [01:06<00:17, 273MB/s]Computing md5sum on /root/.cache/gem5/x86-parsec:  82%|########1 | 19.6G/24.0G [01:06<00:16, 283MB/s]Computing md5sum on /root/.cache/gem5/x86-parsec:  82%|########1 | 19.7G/24.0G [01:06<00:16, 284MB/s]Computing md5sum on /root/.cache/gem5/x86-parsec:  82%|########2 | 19.7G/24.0G [01:06<00:15, 291MB/s]Computing md5sum on /root/.cache/gem5/x86-parsec:  82%|########2 | 19.7G/24.0G [01:07<00:15, 293MB/s]Computing md5sum on /root/.cache/gem5/x86-parsec:  82%|########2 | 19.7G/24.0G [01:07<00:15, 296MB/s]Computing md5sum on /root/.cache/gem5/x86-parsec:  82%|########2 | 19.8G/24.0G [01:07<00:15, 301MB/s]Computing md5sum on /root/.cache/gem5/x86-parsec:  83%|########2 | 19.8G/24.0G [01:07<00:14, 304MB/s]Computing md5sum on /root/.cache/gem5/x86-parsec:  83%|########2 | 19.8G/24.0G [01:07<00:14, 303MB/s]Computing md5sum on /root/.cache/gem5/x86-parsec:  83%|########2 | 19.9G/24.0G [01:07<00:14, 311MB/s]Computing md5sum on /root/.cache/gem5/x86-parsec:  83%|########2 | 19.9G/24.0G [01:07<00:13, 315MB/s]Computing md5sum on /root/.cache/gem5/x86-parsec:  83%|########3 | 19.9G/24.0G [01:07<00:13, 321MB/s]Computing md5sum on /root/.cache/gem5/x86-parsec:  83%|########3 | 20.0G/24.0G [01:07<00:13, 313MB/s]Computing md5sum on /root/.cache/gem5/x86-parsec:  83%|########3 | 20.0G/24.0G [01:07<00:13, 314MB/s]Computing md5sum on /root/.cache/gem5/x86-parsec:  83%|########3 | 20.0G/24.0G [01:08<00:13, 307MB/s]Computing md5sum on /root/.cache/gem5/x86-parsec:  84%|########3 | 20.0G/24.0G [01:08<00:13, 309MB/s]Computing md5sum on /root/.cache/gem5/x86-parsec:  84%|########3 | 20.1G/24.0G [01:08<00:13, 309MB/s]Computing md5sum on /root/.cache/gem5/x86-parsec:  84%|########3 | 20.1G/24.0G [01:08<00:13, 303MB/s]Computing md5sum on /root/.cache/gem5/x86-parsec:  84%|########3 | 20.1G/24.0G [01:08<00:14, 293MB/s]Computing md5sum on /root/.cache/gem5/x86-parsec:  84%|########3 | 20.1G/24.0G [01:08<00:14, 281MB/s]Computing md5sum on /root/.cache/gem5/x86-parsec:  84%|########4 | 20.2G/24.0G [01:08<00:14, 278MB/s]Computing md5sum on /root/.cache/gem5/x86-parsec:  84%|########4 | 20.2G/24.0G [01:08<00:14, 288MB/s]Computing md5sum on /root/.cache/gem5/x86-parsec:  84%|########4 | 20.2G/24.0G [01:08<00:13, 307MB/s]Computing md5sum on /root/.cache/gem5/x86-parsec:  84%|########4 | 20.3G/24.0G [01:08<00:13, 306MB/s]Computing md5sum on /root/.cache/gem5/x86-parsec:  85%|########4 | 20.3G/24.0G [01:09<00:12, 321MB/s]Computing md5sum on /root/.cache/gem5/x86-parsec:  85%|########4 | 20.3G/24.0G [01:09<00:11, 329MB/s]Computing md5sum on /root/.cache/gem5/x86-parsec:  85%|########4 | 20.4G/24.0G [01:09<00:11, 333MB/s]Computing md5sum on /root/.cache/gem5/x86-parsec:  85%|########4 | 20.4G/24.0G [01:09<00:11, 336MB/s]Computing md5sum on /root/.cache/gem5/x86-parsec:  85%|########5 | 20.4G/24.0G [01:09<00:11, 345MB/s]Computing md5sum on /root/.cache/gem5/x86-parsec:  85%|########5 | 20.5G/24.0G [01:09<00:10, 349MB/s]Computing md5sum on /root/.cache/gem5/x86-parsec:  85%|########5 | 20.5G/24.0G [01:09<00:10, 354MB/s]Computing md5sum on /root/.cache/gem5/x86-parsec:  86%|########5 | 20.5G/24.0G [01:09<00:10, 357MB/s]Computing md5sum on /root/.cache/gem5/x86-parsec:  86%|########5 | 20.6G/24.0G [01:09<00:10, 345MB/s]Computing md5sum on /root/.cache/gem5/x86-parsec:  86%|########5 | 20.6G/24.0G [01:09<00:10, 342MB/s]Computing md5sum on /root/.cache/gem5/x86-parsec:  86%|########5 | 20.6G/24.0G [01:10<00:10, 342MB/s]Computing md5sum on /root/.cache/gem5/x86-parsec:  86%|########6 | 20.6G/24.0G [01:10<00:10, 328MB/s]Computing md5sum on /root/.cache/gem5/x86-parsec:  86%|########6 | 20.7G/24.0G [01:10<00:11, 315MB/s]Computing md5sum on /root/.cache/gem5/x86-parsec:  86%|########6 | 20.7G/24.0G [01:10<00:11, 316MB/s]Computing md5sum on /root/.cache/gem5/x86-parsec:  86%|########6 | 20.7G/24.0G [01:10<00:10, 326MB/s]Computing md5sum on /root/.cache/gem5/x86-parsec:  87%|########6 | 20.8G/24.0G [01:10<00:10, 330MB/s]Computing md5sum on /root/.cache/gem5/x86-parsec:  87%|########6 | 20.8G/24.0G [01:10<00:10, 323MB/s]Computing md5sum on /root/.cache/gem5/x86-parsec:  87%|########6 | 20.8G/24.0G [01:10<00:10, 324MB/s]Computing md5sum on /root/.cache/gem5/x86-parsec:  87%|########6 | 20.9G/24.0G [01:10<00:10, 332MB/s]Computing md5sum on /root/.cache/gem5/x86-parsec:  87%|########7 | 20.9G/24.0G [01:10<00:09, 338MB/s]Computing md5sum on /root/.cache/gem5/x86-parsec:  87%|########7 | 20.9G/24.0G [01:11<00:09, 338MB/s]Computing md5sum on /root/.cache/gem5/x86-parsec:  87%|########7 | 21.0G/24.0G [01:11<00:09, 346MB/s]Computing md5sum on /root/.cache/gem5/x86-parsec:  87%|########7 | 21.0G/24.0G [01:11<00:09, 350MB/s]Computing md5sum on /root/.cache/gem5/x86-parsec:  88%|########7 | 21.0G/24.0G [01:11<00:09, 333MB/s]Computing md5sum on /root/.cache/gem5/x86-parsec:  88%|########7 | 21.0G/24.0G [01:11<00:09, 334MB/s]Computing md5sum on /root/.cache/gem5/x86-parsec:  88%|########7 | 21.1G/24.0G [01:11<00:09, 339MB/s]Computing md5sum on /root/.cache/gem5/x86-parsec:  88%|########7 | 21.1G/24.0G [01:11<00:09, 333MB/s]Computing md5sum on /root/.cache/gem5/x86-parsec:  88%|########8 | 21.1G/24.0G [01:11<00:09, 336MB/s]Computing md5sum on /root/.cache/gem5/x86-parsec:  88%|########8 | 21.2G/24.0G [01:11<00:09, 331MB/s]Computing md5sum on /root/.cache/gem5/x86-parsec:  88%|########8 | 21.2G/24.0G [01:11<00:09, 328MB/s]Computing md5sum on /root/.cache/gem5/x86-parsec:  88%|########8 | 21.2G/24.0G [01:12<00:09, 312MB/s]Computing md5sum on /root/.cache/gem5/x86-parsec:  89%|########8 | 21.3G/24.0G [01:12<00:09, 306MB/s]Computing md5sum on /root/.cache/gem5/x86-parsec:  89%|########8 | 21.3G/24.0G [01:12<00:09, 310MB/s]Computing md5sum on /root/.cache/gem5/x86-parsec:  89%|########8 | 21.3G/24.0G [01:12<00:09, 316MB/s]Computing md5sum on /root/.cache/gem5/x86-parsec:  89%|########8 | 21.3G/24.0G [01:12<00:08, 326MB/s]Computing md5sum on /root/.cache/gem5/x86-parsec:  89%|########9 | 21.4G/24.0G [01:12<00:08, 338MB/s]Computing md5sum on /root/.cache/gem5/x86-parsec:  89%|########9 | 21.4G/24.0G [01:12<00:07, 348MB/s]Computing md5sum on /root/.cache/gem5/x86-parsec:  89%|########9 | 21.5G/24.0G [01:12<00:07, 354MB/s]Computing md5sum on /root/.cache/gem5/x86-parsec:  90%|########9 | 21.5G/24.0G [01:12<00:07, 358MB/s]Computing md5sum on /root/.cache/gem5/x86-parsec:  90%|########9 | 21.5G/24.0G [01:12<00:07, 350MB/s]Computing md5sum on /root/.cache/gem5/x86-parsec:  90%|########9 | 21.5G/24.0G [01:13<00:07, 347MB/s]Computing md5sum on /root/.cache/gem5/x86-parsec:  90%|########9 | 21.6G/24.0G [01:13<00:07, 350MB/s]Computing md5sum on /root/.cache/gem5/x86-parsec:  90%|######### | 21.6G/24.0G [01:13<00:07, 350MB/s]Computing md5sum on /root/.cache/gem5/x86-parsec:  90%|######### | 21.6G/24.0G [01:13<00:07, 351MB/s]Computing md5sum on /root/.cache/gem5/x86-parsec:  90%|######### | 21.7G/24.0G [01:13<00:07, 353MB/s]Computing md5sum on /root/.cache/gem5/x86-parsec:  90%|######### | 21.7G/24.0G [01:13<00:06, 355MB/s]Computing md5sum on /root/.cache/gem5/x86-parsec:  91%|######### | 21.7G/24.0G [01:13<00:06, 357MB/s]Computing md5sum on /root/.cache/gem5/x86-parsec:  91%|######### | 21.8G/24.0G [01:13<00:06, 357MB/s]Computing md5sum on /root/.cache/gem5/x86-parsec:  91%|######### | 21.8G/24.0G [01:13<00:06, 351MB/s]Computing md5sum on /root/.cache/gem5/x86-parsec:  91%|#########1| 21.8G/24.0G [01:13<00:06, 345MB/s]Computing md5sum on /root/.cache/gem5/x86-parsec:  91%|#########1| 21.9G/24.0G [01:14<00:06, 343MB/s]Computing md5sum on /root/.cache/gem5/x86-parsec:  91%|#########1| 21.9G/24.0G [01:14<00:06, 327MB/s]Computing md5sum on /root/.cache/gem5/x86-parsec:  91%|#########1| 21.9G/24.0G [01:14<00:07, 315MB/s]Computing md5sum on /root/.cache/gem5/x86-parsec:  91%|#########1| 22.0G/24.0G [01:14<00:07, 309MB/s]Computing md5sum on /root/.cache/gem5/x86-parsec:  92%|#########1| 22.0G/24.0G [01:14<00:07, 304MB/s]Computing md5sum on /root/.cache/gem5/x86-parsec:  92%|#########1| 22.0G/24.0G [01:14<00:07, 300MB/s]Computing md5sum on /root/.cache/gem5/x86-parsec:  92%|#########1| 22.0G/24.0G [01:14<00:07, 290MB/s]Computing md5sum on /root/.cache/gem5/x86-parsec:  92%|#########1| 22.1G/24.0G [01:14<00:07, 296MB/s]Computing md5sum on /root/.cache/gem5/x86-parsec:  92%|#########2| 22.1G/24.0G [01:14<00:06, 307MB/s]Computing md5sum on /root/.cache/gem5/x86-parsec:  92%|#########2| 22.1G/24.0G [01:14<00:06, 319MB/s]Computing md5sum on /root/.cache/gem5/x86-parsec:  92%|#########2| 22.2G/24.0G [01:15<00:06, 319MB/s]Computing md5sum on /root/.cache/gem5/x86-parsec:  92%|#########2| 22.2G/24.0G [01:15<00:05, 330MB/s]Computing md5sum on /root/.cache/gem5/x86-parsec:  93%|#########2| 22.2G/24.0G [01:15<00:05, 334MB/s]Computing md5sum on /root/.cache/gem5/x86-parsec:  93%|#########2| 22.2G/24.0G [01:15<00:05, 323MB/s]Computing md5sum on /root/.cache/gem5/x86-parsec:  93%|#########2| 22.3G/24.0G [01:15<00:05, 321MB/s]Computing md5sum on /root/.cache/gem5/x86-parsec:  93%|#########2| 22.3G/24.0G [01:15<00:05, 325MB/s]Computing md5sum on /root/.cache/gem5/x86-parsec:  93%|#########3| 22.3G/24.0G [01:15<00:05, 333MB/s]Computing md5sum on /root/.cache/gem5/x86-parsec:  93%|#########3| 22.4G/24.0G [01:15<00:05, 338MB/s]Computing md5sum on /root/.cache/gem5/x86-parsec:  93%|#########3| 22.4G/24.0G [01:15<00:05, 339MB/s]Computing md5sum on /root/.cache/gem5/x86-parsec:  94%|#########3| 22.4G/24.0G [01:15<00:04, 343MB/s]Computing md5sum on /root/.cache/gem5/x86-parsec:  94%|#########3| 22.5G/24.0G [01:16<00:04, 342MB/s]Computing md5sum on /root/.cache/gem5/x86-parsec:  94%|#########3| 22.5G/24.0G [01:16<00:04, 345MB/s]Computing md5sum on /root/.cache/gem5/x86-parsec:  94%|#########3| 22.5G/24.0G [01:16<00:04, 345MB/s]Computing md5sum on /root/.cache/gem5/x86-parsec:  94%|#########4| 22.6G/24.0G [01:16<00:04, 334MB/s]Computing md5sum on /root/.cache/gem5/x86-parsec:  94%|#########4| 22.6G/24.0G [01:16<00:04, 321MB/s]Computing md5sum on /root/.cache/gem5/x86-parsec:  94%|#########4| 22.6G/24.0G [01:16<00:04, 329MB/s]Computing md5sum on /root/.cache/gem5/x86-parsec:  94%|#########4| 22.7G/24.0G [01:16<00:04, 335MB/s]Computing md5sum on /root/.cache/gem5/x86-parsec:  95%|#########4| 22.7G/24.0G [01:16<00:04, 340MB/s]Computing md5sum on /root/.cache/gem5/x86-parsec:  95%|#########4| 22.7G/24.0G [01:16<00:03, 345MB/s]Computing md5sum on /root/.cache/gem5/x86-parsec:  95%|#########4| 22.8G/24.0G [01:16<00:03, 337MB/s]Computing md5sum on /root/.cache/gem5/x86-parsec:  95%|#########4| 22.8G/24.0G [01:17<00:03, 341MB/s]Computing md5sum on /root/.cache/gem5/x86-parsec:  95%|#########5| 22.8G/24.0G [01:17<00:03, 343MB/s]Computing md5sum on /root/.cache/gem5/x86-parsec:  95%|#########5| 22.9G/24.0G [01:17<00:03, 344MB/s]Computing md5sum on /root/.cache/gem5/x86-parsec:  95%|#########5| 22.9G/24.0G [01:17<00:03, 342MB/s]Computing md5sum on /root/.cache/gem5/x86-parsec:  95%|#########5| 22.9G/24.0G [01:17<00:03, 342MB/s]Computing md5sum on /root/.cache/gem5/x86-parsec:  96%|#########5| 22.9G/24.0G [01:17<00:03, 347MB/s]Computing md5sum on /root/.cache/gem5/x86-parsec:  96%|#########5| 23.0G/24.0G [01:17<00:03, 336MB/s]Computing md5sum on /root/.cache/gem5/x86-parsec:  96%|#########5| 23.0G/24.0G [01:17<00:03, 340MB/s]Computing md5sum on /root/.cache/gem5
[...]
src/mem/dram_interface.cc:690: warn: DRAM device capacity (16384 Mbytes) does not match the address range assigned (2048 Mbytes)
src/mem/dram_interface.cc:690: warn: DRAM device capacity (16384 Mbytes) does not match the address range assigned (2048 Mbytes)
src/sim/kernel_workload.cc:46: info: kernel located at: /root/.cache/gem5/x86-linux-kernel-4.19.83
src/base/statistics.hh:279: warn: One of the stats is a legacy stat. Legacy stat is a stat that does not belong to any statistics::Group. Legacy stat is deprecated.
      0: board.pc.south_bridge.cmos.rtc: Real-time clock set to Sun Jan  1 00:00:00 2012
board.pc.com_1.device: Listening for connections on port 3456
src/base/statistics.hh:279: warn: One of the stats is a legacy stat. Legacy stat is a stat that does not belong to any statistics::Group. Legacy stat is deprecated.
src/cpu/kvm/base.cc:113: info: Using KVM CPU without perf. The stats related to the number of cycles and instructions executed by the KVM CPU will not be updated. The stats should not be used for performance evaluation.
src/cpu/kvm/base.cc:113: info: Using KVM CPU without perf. The stats related to the number of cycles and instructions executed by the KVM CPU will not be updated. The stats should not be used for performance evaluation.
src/dev/intel_8254_timer.cc:128: warn: Reading current count from inactive timer.
board.remote_gdb: Listening for connections on port 7000
src/cpu/kvm/base.cc:169: info: KVM: Coalesced MMIO disabled by config.
src/arch/x86/cpuid.cc:180: warn: x86 cpuid family 0x0000: unimplemented function 2
src/arch/x86/cpuid.cc:180: warn: x86 cpuid family 0x0000: unimplemented function 3
src/arch/x86/cpuid.cc:180: warn: x86 cpuid family 0x0000: unimplemented function 4
src/arch/x86/cpuid.cc:180: warn: x86 cpuid family 0x0000: unimplemented function 5
src/arch/x86/cpuid.cc:180: warn: x86 cpuid family 0x0000: unimplemented function 6
src/cpu/kvm/base.cc:169: info: KVM: Coalesced MMIO disabled by config.
src/arch/x86/cpuid.cc:180: warn: x86 cpuid family 0x0000: unimplemented function 2
src/arch/x86/cpuid.cc:180: warn: x86 cpuid family 0x0000: unimplemented function 3
src/arch/x86/cpuid.cc:180: warn: x86 cpuid family 0x0000: unimplemented function 4
src/arch/x86/cpuid.cc:180: warn: x86 cpuid family 0x0000: unimplemented function 5
src/arch/x86/cpuid.cc:180: warn: x86 cpuid family 0x0000: unimplemented function 6
Running the simulation
Using KVM cpu

warn: No dot file generated. Please install pydot to generate the dot file and pdf.
src/sim/simulate.cc:194: info: Entering event queue @ 0.  Starting simulation...
src/arch/x86/kvm/x86_cpu.cc:1562: warn: kvm-x86: MSR (0x3a) unsupported by gem5. Skipping.
src/arch/x86/kvm/x86_cpu.cc:1562: warn: kvm-x86: MSR (0x48) unsupported by gem5. Skipping.
src/arch/x86/kvm/x86_cpu.cc:1562: warn: kvm-x86: MSR (0xc1) unsupported by gem5. Skipping.
src/arch/x86/kvm/x86_cpu.cc:1562: warn: kvm-x86: MSR (0xc2) unsupported by gem5. Skipping.
src/arch/x86/kvm/x86_cpu.cc:1562: warn: kvm-x86: MSR (0x186) unsupported by gem5. Skipping.
src/arch/x86/kvm/x86_cpu.cc:1562: warn: kvm-x86: MSR (0x187) unsupported by gem5. Skipping.
src/arch/x86/kvm/x86_cpu.cc:1562: warn: kvm-x86: MSR (0xc0010200) unsupported by gem5. Skipping.
src/arch/x86/kvm/x86_cpu.cc:1562: warn: kvm-x86: MSR (0xc0010202) unsupported by gem5. Skipping.
src/arch/x86/kvm/x86_cpu.cc:1562: warn: kvm-x86: MSR (0xc0010204) unsupported by gem5. Skipping.
src/arch/x86/kvm/x86_cpu.cc:1562: warn: kvm-x86: MSR (0xc0010206) unsupported by gem5. Skipping.
src/arch/x86/kvm/x86_cpu.cc:1562: warn: kvm-x86: MSR (0xc0010208) unsupported by gem5. Skipping.
src/arch/x86/kvm/x86_cpu.cc:1562: warn: kvm-x86: MSR (0xc001020a) unsupported by gem5. Skipping.
src/arch/x86/kvm/x86_cpu.cc:1562: warn: kvm-x86: MSR (0xc0010201) unsupported by gem5. Skipping.
src/arch/x86/kvm/x86_cpu.cc:1562: warn: kvm-x86: MSR (0xc0010203) unsupported by gem5. Skipping.
src/arch/x86/kvm/x86_cpu.cc:1562: warn: kvm-x86: MSR (0xc0010205) unsupported by gem5. Skipping.
src/arch/x86/kvm/x86_cpu.cc:1562: warn: kvm-x86: MSR (0xc0010207) unsupported by gem5. Skipping.
src/arch/x86/kvm/x86_cpu.cc:1562: warn: kvm-x86: MSR (0xc0010209) unsupported by gem5. Skipping.
src/arch/x86/kvm/x86_cpu.cc:1562: warn: kvm-x86: MSR (0xc001020b) unsupported by gem5. Skipping.
src/arch/x86/kvm/x86_cpu.cc:1562: warn: kvm-x86: MSR (0x12) unsupported by gem5. Skipping.
src/arch/x86/kvm/x86_cpu.cc:1562: warn: kvm-x86: MSR (0x11) unsupported by gem5. Skipping.
src/arch/x86/kvm/x86_cpu.cc:1562: warn: kvm-x86: MSR (0x4b564d01) unsupported by gem5. Skipping.
src/arch/x86/kvm/x86_cpu.cc:1562: warn: kvm-x86: MSR (0x4b564d00) unsupported by gem5. Skipping.
src/arch/x86/kvm/x86_cpu.cc:1562: warn: kvm-x86: MSR (0x40000000) unsupported by gem5. Skipping.
src/arch/x86/kvm/x86_cpu.cc:1562: warn: kvm-x86: MSR (0x40000001) unsupported by gem5. Skipping.
src/arch/x86/kvm/x86_cpu.cc:1562: warn: kvm-x86: MSR (0x40000020) unsupported by gem5. Skipping.
src/arch/x86/kvm/x86_cpu.cc:1562: warn: kvm-x86: MSR (0x40000021) unsupported by gem5. Skipping.
src/arch/x86/kvm/x86_cpu.cc:1562: warn: kvm-x86: MSR (0x40000022) unsupported by gem5. Skipping.
src/arch/x86/kvm/x86_cpu.cc:1562: warn: kvm-x86: MSR (0x40000023) unsupported by gem5. Skipping.
src/arch/x86/kvm/x86_cpu.cc:1562: warn: kvm-x86: MSR (0x40000100) unsupported by gem5. Skipping.
src/arch/x86/kvm/x86_cpu.cc:1562: warn: kvm-x86: MSR (0x40000101) unsupported by gem5. Skipping.
src/arch/x86/kvm/x86_cpu.cc:1562: warn: kvm-x86: MSR (0x40000102) unsupported by gem5. Skipping.
src/arch/x86/kvm/x86_cpu.cc:1562: warn: kvm-x86: MSR (0x40000103) unsupported by gem5. Skipping.
src/arch/x86/kvm/x86_cpu.cc:1562: warn: kvm-x86: MSR (0x40000104) unsupported by gem5. Skipping.
src/arch/x86/kvm/x86_cpu.cc:1562: warn: kvm-x86: MSR (0x40000105) unsupported by gem5. Skipping.
src/arch/x86/kvm/x86_cpu.cc:1562: warn: kvm-x86: MSR (0x40000003) unsupported by gem5. Skipping.
src/arch/x86/kvm/x86_cpu.cc:1562: warn: kvm-x86: MSR (0x40000002) unsupported by gem5. Skipping.
src/arch/x86/kvm/x86_cpu.cc:1562: warn: kvm-x86: MSR (0x40000010) unsupported by gem5. Skipping.
src/arch/x86/kvm/x86_cpu.cc:1562: warn: kvm-x86: MSR (0x40000080) unsupported by gem5. Skipping.
src/arch/x86/kvm/x86_cpu.cc:1562: warn: kvm-x86: MSR (0x400000b0) unsupported by gem5. Skipping.
src/arch/x86/kvm/x86_cpu.cc:1562: warn: kvm-x86: MSR (0x40000073) unsupported by gem5. Skipping.
src/arch/x86/kvm/x86_cpu.cc:1562: warn: kvm-x86: MSR (0x40000106) unsupported by gem5. Skipping.
src/arch/x86/kvm/x86_cpu.cc:1562: warn: kvm-x86: MSR (0x40000107) unsupported by gem5. Skipping.
src/arch/x86/kvm/x86_cpu.cc:1562: warn: kvm-x86: MSR (0x40000108) unsupported by gem5. Skipping.
src/arch/x86/kvm/x86_cpu.cc:1562: warn: kvm-x86: MSR (0x4b564d02) unsupported by gem5. Skipping.
src/arch/x86/kvm/x86_cpu.cc:1562: warn: kvm-x86: MSR (0x4b564d03) unsupported by gem5. Skipping.
src/arch/x86/kvm/x86_cpu.cc:1562: warn: kvm-x86: MSR (0x4b564d04) unsupported by gem5. Skipping.
src/arch/x86/kvm/x86_cpu.cc:1562: warn: kvm-x86: MSR (0x3b) unsupported by gem5. Skipping.
src/arch/x86/kvm/x86_cpu.cc:1562: warn: kvm-x86: MSR (0x6e0) unsupported by gem5. Skipping.
src/arch/x86/kvm/x86_cpu.cc:1562: warn: kvm-x86: MSR (0x10a) unsupported by gem5. Skipping.
src/arch/x86/kvm/x86_cpu.cc:1562: warn: kvm-x86: MSR (0x1a0) unsupported by gem5. Skipping.
src/arch/x86/kvm/x86_cpu.cc:1562: warn: kvm-x86: MSR (0x4d0) unsupported by gem5. Skipping.
src/arch/x86/kvm/x86_cpu.cc:1562: warn: kvm-x86: MSR (0x9e) unsupported by gem5. Skipping.
src/arch/x86/kvm/x86_cpu.cc:1562: warn: kvm-x86: MSR (0x34) unsupported by gem5. Skipping.
src/arch/x86/kvm/x86_cpu.cc:1562: warn: kvm-x86: MSR (0xce) unsupported by gem5. Skipping.
src/arch/x86/kvm/x86_cpu.cc:1562: warn: kvm-x86: MSR (0x140) unsupported by gem5. Skipping.
src/arch/x86/kvm/x86_cpu.cc:1562: warn: kvm-x86: MSR (0x1fc) unsupported by gem5. Skipping.
src/arch/x86/kvm/x86_cpu.cc:1562: warn: kvm-x86: MSR (0x480) unsupported by gem5. Skipping.
src/arch/x86/kvm/x86_cpu.cc:1562: warn: kvm-x86: MSR (0x48d) unsupported by gem5. Skipping.
src/arch/x86/kvm/x86_cpu.cc:1562: warn: kvm-x86: MSR (0x48e) unsupported by gem5. Skipping.
src/arch/x86/kvm/x86_cpu.cc:1562: warn: kvm-x86: MSR (0x48f) unsupported by gem5. Skipping.
src/arch/x86/kvm/x86_cpu.cc:1562: warn: kvm-x86: MSR (0x490) unsupported by gem5. Skipping.
src/arch/x86/kvm/x86_cpu.cc:1562: warn: kvm-x86: MSR (0x485) unsupported by gem5. Skipping.
src/arch/x86/kvm/x86_cpu.cc:1562: warn: kvm-x86: MSR (0x486) unsupported by gem5. Skipping.
src/arch/x86/kvm/x86_cpu.cc:1562: warn: kvm-x86: MSR (0x488) unsupported by gem5. Skipping.
src/arch/x86/kvm/x86_cpu.cc:1562: warn: kvm-x86: MSR (0x48a) unsupported by gem5. Skipping.
src/arch/x86/kvm/x86_cpu.cc:1562: warn: kvm-x86: MSR (0x48b) unsupported by gem5. Skipping.
src/arch/x86/kvm/x86_cpu.cc:1562: warn: kvm-x86: MSR (0x48c) unsupported by gem5. Skipping.
src/arch/x86/kvm/x86_cpu.cc:1562: warn: kvm-x86: MSR (0x491) unsupported by gem5. Skipping.
src/arch/x86/kvm/x86_cpu.cc:1562: warn: kvm-x86: MSR (0xc0010015) unsupported by gem5. Skipping.
src/arch/x86/kvm/x86_cpu.cc:1562: warn: kvm-x86: MSR (0x4b564d05) unsupported by gem5. Skipping.
src/dev/x86/pc.cc:117: warn: Don't know what interrupt to clear for console.
src/arch/x86/kvm/x86_cpu.cc:528: warn: cs limit (0xffffffff) and g (0) combination is illegal.
src/arch/x86/kvm/x86_cpu.cc:1562: warn: kvm-x86: MSR (0x3a) unsupported by gem5. Skipping.
src/arch/x86/kvm/x86_cpu.cc:1562: warn: kvm-x86: MSR (0x48) unsupported by gem5. Skipping.
src/arch/x86/kvm/x86_cpu.cc:1562: warn: kvm-x86: MSR (0xc1) unsupported by gem5. Skipping.
src/arch/x86/kvm/x86_cpu.cc:1562: warn: kvm-x86: MSR (0xc2) unsupported by gem5. Skipping.
src/arch/x86/kvm/x86_cpu.cc:1562: warn: kvm-x86: MSR (0x186) unsupported by gem5. Skipping.
src/arch/x86/kvm/x86_cpu.cc:1562: warn: kvm-x86: MSR (0x187) unsupported by gem5. Skipping.
src/arch/x86/kvm/x86_cpu.cc:1562: warn: kvm-x86: MSR (0xc0010200) unsupported by gem5. Skipping.
src/arch/x86/kvm/x86_cpu.cc:1562: warn: kvm-x86: MSR (0xc0010202) unsupported by gem5. Skipping.
src/arch/x86/kvm/x86_cpu.cc:1562: warn: kvm-x86: MSR (0xc0010204) unsupported by gem5. Skipping.
src/arch/x86/kvm/x86_cpu.cc:1562: warn: kvm-x86: MSR (0xc0010206) unsupported by gem5. Skipping.
src/arch/x86/kvm/x86_cpu.cc:1562: warn: kvm-x86: MSR (0xc0010208) unsupported by gem5. Skipping.
src/arch/x86/kvm/x86_cpu.cc:1562: warn: kvm-x86: MSR (0xc001020a) unsupported by gem5. Skipping.
src/arch/x86/kvm/x86_cpu.cc:1562: warn: kvm-x86: MSR (0xc0010201) unsupported by gem5. Skipping.
src/arch/x86/kvm/x86_cpu.cc:1562: warn: kvm-x86: MSR (0xc0010203) unsupported by gem5. Skipping.
src/arch/x86/kvm/x86_cpu.cc:1562: warn: kvm-x86: MSR (0xc0010205) unsupported by gem5. Skipping.
src/arch/x86/kvm/x86_cpu.cc:1562: warn: kvm-x86: MSR (0xc0010207) unsupported by gem5. Skipping.
src/arch/x86/kvm/x86_cpu.cc:1562: warn: kvm-x86: MSR (0xc0010209) unsupported by gem5. Skipping.
src/arch/x86/kvm/x86_cpu.cc:1562: warn: kvm-x86: MSR (0xc001020b) unsupported by gem5. Skipping.
src/arch/x86/kvm/x86_cpu.cc:1562: warn: kvm-x86: MSR (0x12) unsupported by gem5. Skipping.
src/arch/x86/kvm/x86_cpu.cc:1562: warn: kvm-x86: MSR (0x11) unsupported by gem5. Skipping.
src/arch/x86/kvm/x86_cpu.cc:1562: warn: kvm-x86: MSR (0x4b564d01) unsupported by gem5. Skipping.
src/arch/x86/kvm/x86_cpu.cc:1562: warn: kvm-x86: MSR (0x4b564d00) unsupported by gem5. Skipping.
src/arch/x86/kvm/x86_cpu.cc:1562: warn: kvm-x86: MSR (0x40000000) unsupported by gem5. Skipping.
src/arch/x86/kvm/x86_cpu.cc:1562: warn: kvm-x86: MSR (0x40000001) unsupported by gem5. Skipping.
src/arch/x86/kvm/x86_cpu.cc:1562: warn: kvm-x86: MSR (0x40000020) unsupported by gem5. Skipping.
src/arch/x86/kvm/x86_cpu.cc:1562: warn: kvm-x86: MSR (0x40000021) unsupported by gem5. Skipping.
src/arch/x86/kvm/x86_cpu.cc:1562: warn: kvm-x86: MSR (0x40000022) unsupported by gem5. Skipping.
src/arch/x86/kvm/x86_cpu.cc:1562: warn: kvm-x86: MSR (0x40000023) unsupported by gem5. Skipping.
src/arch/x86/kvm/x86_cpu.cc:1562: warn: kvm-x86: MSR (0x40000100) unsupported by gem5. Skipping.
src/arch/x86/kvm/x86_cpu.cc:1562: warn: kvm-x86: MSR (0x40000101) unsupported by gem5. Skipping.
src/arch/x86/kvm/x86_cpu.cc:1562: warn: kvm-x86: MSR (0x40000102) unsupported by gem5. Skipping.
src/arch/x86/kvm/x86_cpu.cc:1562: warn: kvm-x86: MSR (0x40000103) unsupported by gem5. Skipping.
src/arch/x86/kvm/x86_cpu.cc:1562: warn: kvm-x86: MSR (0x40000104) unsupported by gem5. Skipping.
src/arch/x86/kvm/x86_cpu.cc:1562: warn: kvm-x86: MSR (0x40000105) unsupported by gem5. Skipping.
src/arch/x86/kvm/x86_cpu.cc:1562: warn: kvm-x86: MSR (0x40000003) unsupported by gem5. Skipping.
src/arch/x86/kvm/x86_cpu.cc:1562: warn: kvm-x86: MSR (0x40000002) unsupported by gem5. Skipping.
src/arch/x86/kvm/x86_cpu.cc:1562: warn: kvm-x86: MSR (0x40000010) unsupported by gem5. Skipping.
src/arch/x86/kvm/x86_cpu.cc:1562: warn: kvm-x86: MSR (0x40000080) unsupported by gem5. Skipping.
src/arch/x86/kvm/x86_cpu.cc:1562: warn: kvm-x86: MSR (0x400000b0) unsupported by gem5. Skipping.
src/arch/x86/kvm/x86_cpu.cc:1562: warn: kvm-x86: MSR (0x40000073) unsupported by gem5. Skipping.
src/arch/x86/kvm/x86_cpu.cc:1562: warn: kvm-x86: MSR (0x40000106) unsupported by gem5. Skipping.
src/arch/x86/kvm/x86_cpu.cc:1562: warn: kvm-x86: MSR (0x40000107) unsupported by gem5. Skipping.
src/arch/x86/kvm/x86_cpu.cc:1562: warn: kvm-x86: MSR (0x40000108) unsupported by gem5. Skipping.
src/arch/x86/kvm/x86_cpu.cc:1562: warn: kvm-x86: MSR (0x4b564d02) unsupported by gem5. Skipping.
src/arch/x86/kvm/x86_cpu.cc:1562: warn: kvm-x86: MSR (0x4b564d03) unsupported by gem5. Skipping.
src/arch/x86/kvm/x86_cpu.cc:1562: warn: kvm-x86: MSR (0x4b564d04) unsupported by gem5. Skipping.
src/arch/x86/kvm/x86_cpu.cc:1562: warn: kvm-x86: MSR (0x3b) unsupported by gem5. Skipping.
src/arch/x86/kvm/x86_cpu.cc:1562: warn: kvm-x86: MSR (0x6e0) unsupported by gem5. Skipping.
src/arch/x86/kvm/x86_cpu.cc:1562: warn: kvm-x86: MSR (0x10a) unsupported by gem5. Skipping.
src/arch/x86/kvm/x86_cpu.cc:1562: warn: kvm-x86: MSR (0x1a0) unsupported by gem5. Skipping.
src/arch/x86/kvm/x86_cpu.cc:1562: warn: kvm-x86: MSR (0x4d0) unsupported by gem5. Skipping.
src/arch/x86/kvm/x86_cpu.cc:1562: warn: kvm-x86: MSR (0x9e) unsupported by gem5. Skipping.
src/arch/x86/kvm/x86_cpu.cc:1562: warn: kvm-x86: MSR (0x34) unsupported by gem5. Skipping.
src/arch/x86/kvm/x86_cpu.cc:1562: warn: kvm-x86: MSR (0xce) unsupported by gem5. Skipping.
src/arch/x86/kvm/x86_cpu.cc:1562: warn: kvm-x86: MSR (0x140) unsupported by gem5. Skipping.
src/arch/x86/kvm/x86_cpu.cc:1562: warn: kvm-x86: MSR (0x1fc) unsupported by gem5. Skipping.
src/arch/x86/kvm/x86_cpu.cc:1562: warn: kvm-x86: MSR (0x480) unsupported by gem5. Skipping.
src/arch/x86/kvm/x86_cpu.cc:1562: warn: kvm-x86: MSR (0x48d) unsupported by gem5. Skipping.
src/arch/x86/kvm/x86_cpu.cc:1562: warn: kvm-x86: MSR (0x48e) unsupported by gem5. Skipping.
src/arch/x86/kvm/x86_cpu.cc:1562: warn: kvm-x86: MSR (0x48f) unsupported by gem5. Skipping.
src/arch/x86/kvm/x86_cpu.cc:1562: warn: kvm-x86: MSR (0x490) unsupported by gem5. Skipping.
src/arch/x86/kvm/x86_cpu.cc:1562: warn: kvm-x86: MSR (0x485) unsupported by gem5. Skipping.
src/arch/x86/kvm/x86_cpu.cc:1562: warn: kvm-x86: MSR (0x486) unsupported by gem5. Skipping.
src/arch/x86/kvm/x86_cpu.cc:1562: warn: kvm-x86: MSR (0x488) unsupported by gem5. Skipping.
src/arch/x86/kvm/x86_cpu.cc:1562: warn: kvm-x86: MSR (0x48a) unsupported by gem5. Skipping.
src/arch/x86/kvm/x86_cpu.cc:1562: warn: kvm-x86: MSR (0x48b) unsupported by gem5. Skipping.
src/arch/x86/kvm/x86_cpu.cc:1562: warn: kvm-x86: MSR (0x48c) unsupported by gem5. Skipping.
src/arch/x86/kvm/x86_cpu.cc:1562: warn: kvm-x86: MSR (0x491) unsupported by gem5. Skipping.
src/arch/x86/kvm/x86_cpu.cc:1562: warn: kvm-x86: MSR (0xc0010015) unsupported by gem5. Skipping.
src/arch/x86/kvm/x86_cpu.cc:1562: warn: kvm-x86: MSR (0x4b564d05) unsupported by gem5. Skipping.
src/arch/x86/kvm/x86_cpu.cc:528: warn: cs limit (0xffffffff) and g (0) combination is illegal.
src/arch/x86/kvm/x86_cpu.cc:528: warn: cs limit (0xffffffff) and g (0) combination is illegal.
src/arch/x86/interrupts.cc:530: hack: Assuming logical destinations are 1 << id.
src/dev/x86/i8042.cc:290: warn: Write to unknown i8042 (keyboard controller) command port.
src/sim/power_state.cc:105: warn: PowerState: Already in the requested power state, request ignored
Done booting Linux
Resetting stats at the start of ROI!
switching cpus
src/sim/simulate.cc:194: info: Entering event queue @ 19810769622445.  Starting simulation...
src/mem/ruby/system/Sequencer.cc:606: warn: Replacement policy updates recently became the responsibility of SLICC state machines. Make sure to setMRU() near callbacks in .sm files!
build/X86/arch/x86/generated/exec-ns.cc.inc:27: warn: instruction 'verw_Mw_or_Rv' unimplemented
build/X86/arch/x86/generated/exec-ns.cc.inc:27: warn: instruction 'verw_Mw_or_Rv' unimplemented
build/X86/arch/x86/generated/exec-ns.cc.inc:27: warn: instruction 'verw_Mw_or_Rv' unimplemented
build/X86/arch/x86/generated/exec-ns.cc.inc:27: warn: instruction 'fwait' unimplemented
src/cpu/kvm/base.cc:591: hack: Pretending totalOps is equivalent to totalInsts()
Dump stats at the end of the ROI!
All simulation events were successful.
Done with the simulation

Performance statistics:
Simulated time in ROI: 90273541096
Ran a total of 19.901043163541 simulated seconds
Total wallclock time: 591.02s, 9.85 min
